geometry optimzed in LAMMPS
_audit_creation_date              2020-11-30 
_audit_creation_method            'lammps2cif' 
_symmetry_space_group_name_H-M    'P1' 
_symmetry_Int_Tables_number       1 
_symmetry_cell_setting            triclinic 
loop_ 
_symmetry_equiv_pos_as_xyz 
  x,y,z 
_cell_length_a                    42.12028906 
_cell_length_b                    42.05409460420826 
_cell_length_c                    41.98053265413134 
_cell_angle_alpha                 90.71930405864349 
_cell_angle_beta                  89.8154007399425 
_cell_angle_gamma                 89.8500743432516 
loop_ 
_atom_site_label 
_atom_site_type_symbol 
_atom_site_fract_x 
_atom_site_fract_y 
_atom_site_fract_z 
_atom_site_charge 
O1          O  0.78766974  0.69768895  0.83596599    -0.88000
C2          C  0.79422589  0.72375484  0.65377687     1.12100
O3          O  0.74357023  0.72454928  0.78278191    -1.35800
O4          O  0.84458987  0.74216414  0.71573698    -0.89400
O5          O  0.74023369  0.71154919  0.85497165    -0.90100
O6          O  0.75814400  0.78867991  0.82441282    -0.78900
O7          O  0.81228016  0.71635686  0.77188666    -1.01000
C8          C  0.77820874  0.83404329  0.74527350     1.22100
O9          O  0.71837315  0.77959327  0.75592204    -1.35900
Mn10       Mn  0.72328034  0.73187061  0.73511522     1.82100
O11         O  0.78399002  0.81828696  0.76991811    -0.78000
O12         O  0.82692433  0.79089326  0.70500821    -0.87400
C13         C  0.71591511  0.76572946  0.67239570     1.13200
C14         C  0.84932179  0.77129292  0.71093153     1.07900
O15         O  0.67428258  0.71675790  0.74272162    -0.78900
O16         O  0.77175526  0.75038668  0.72921218    -1.32600
O17         O  0.67484794  0.73816327  0.78875490    -0.98200
C18         C  0.69869284  0.85601941  0.78262976     1.06600
Mn19       Mn  0.77794253  0.78537223  0.69438482     1.48600
O20         O  0.69380738  0.83279161  0.80097594    -0.87400
Mn21       Mn  0.70856143  0.72181247  0.81843647     1.49600
O22         O  0.74580180  0.65283283  0.79846195    -0.91200
C23         C  0.82725062  0.73630729  0.78675386     1.19800
C24         C  0.71646528  0.64960701  0.80452350     1.11900
Mn25       Mn  0.76543682  0.77126415  0.77664778     1.81000
O26         O  0.73135260  0.78502087  0.68767093    -0.96400
Mn27       Mn  0.77830701  0.68857272  0.78778776     1.49300
C28         C  0.76932274  0.70484089  0.85904338     1.08400
Mn29       Mn  0.71491665  0.81497198  0.72067593     1.49900
C30         C  0.64263634  0.80221192  0.73035108     1.11300
O31         O  0.71299994  0.76788895  0.82294309    -1.02200
O32         O  0.78805723  0.75308301  0.65779689    -0.91900
C33         C  0.73291664  0.78161249  0.83867284     1.22600
O34         O  0.76264747  0.82088595  0.72388928    -1.02600
O35         O  0.79901421  0.70509218  0.67686289    -0.90000
O36         O  0.66603009  0.80677836  0.71153601    -0.89600
O37         O  0.69841205  0.67330104  0.81048286    -0.89600
Mn38       Mn  0.80641333  0.71367112  0.72552310     1.47900
O39         O  0.70714199  0.74114487  0.68708545    -0.78100
C40         C  0.65949247  0.72392659  0.76812999     1.15700
O41         O  0.81262219  0.76169476  0.79372738    -0.76800
O42         O  0.72960899  0.68353809  0.71751192    -0.76400
Mn43       Mn  0.68332159  0.78516203  0.79149001     1.51100
O44         O  0.70401327  0.85208867  0.75295220    -0.88800
O45         O  0.77418988  0.68260650  0.74067594    -0.96300
O46         O  0.64659855  0.79726258  0.75997082    -0.91300
C47         C  0.75410022  0.66805061  0.72513239     1.13400
O48         O  0.82935316  0.68671748  0.21420064    -0.88000
C49         C  0.64656175  0.72124141  0.21010477     1.12100
O50         O  0.77706968  0.71493531  0.25655841    -1.35800
O51         O  0.70870305  0.73586503  0.15770758    -0.89400
O52         O  0.84905591  0.69435763  0.26277305    -0.90100
O53         O  0.81886496  0.77604488  0.24036272    -0.78900
O54         O  0.76498785  0.70594353  0.18811769    -1.01000
C55         C  0.74357311  0.82487871  0.22274164     1.22100
O56         O  0.75332934  0.77142167  0.28164831    -1.35900
Mn57       Mn  0.73050160  0.72494481  0.27710886     1.82100
O58         O  0.76697135  0.80799803  0.21482914    -0.78000
O59         O  0.69996087  0.78550796  0.17465528    -0.87400
C60         C  0.66964515  0.76135138  0.28700994     1.13200
C61         C  0.70354115  0.76501143  0.15236933     1.07900
O62         O  0.73733250  0.71028259  0.32574873    -0.78900
O63         O  0.72416679  0.74288702  0.22900406    -1.32600
O64         O  0.78371172  0.72985073  0.32473323    -0.98200
C65         C  0.78386568  0.84659008  0.30037851     1.06600
Mn66       Mn  0.69109078  0.78038451  0.22336314     1.48600
O67         O  0.80186329  0.82289426  0.30521973    -0.87400
Mn68       Mn  0.81256114  0.71015033  0.29211848     1.49600
O69         O  0.78879851  0.64320456  0.25522482    -0.91200
C70         C  0.78098785  0.72472973  0.17337503     1.19800
C71         C  0.79306534  0.63962644  0.28488009     1.11900
Mn72       Mn  0.77191126  0.76122519  0.23421781     1.81000
O73         O  0.68414955  0.78087759  0.27076268    -0.96400
Mn74       Mn  0.77965157  0.67833776  0.22215695     1.49300
C75         C  0.85285526  0.69016475  0.23319596     1.08400
Mn76       Mn  0.72031620  0.80878400  0.28513455     1.49900
C77         C  0.73035841  0.79642650  0.35708501     1.11300
O78         O  0.82230901  0.75613573  0.28662750    -1.02200
O79         O  0.65196678  0.75076392  0.21402401    -0.91900
C80         C  0.83540006  0.76894771  0.26401548     1.22600
O81         O  0.72300816  0.81182381  0.23826999    -1.02600
O82         O  0.66910056  0.70113722  0.20564652    -0.90000
O83         O  0.71144955  0.80180878  0.33418537    -0.89600
O84         O  0.79984651  0.66289924  0.30332884    -0.89600
Mn85       Mn  0.71861541  0.70572447  0.19526751     1.47900
O86         O  0.68364173  0.73587846  0.29399571    -0.78100
C87         C  0.76233662  0.71756275  0.34051871     1.15700
O88         O  0.78801863  0.75039624  0.18718830    -0.76800
O89         O  0.71161011  0.67818610  0.27094800    -0.76400
Mn90       Mn  0.79019337  0.77591543  0.31576572     1.51100
O91         O  0.75439224  0.84352402  0.29472171    -0.88800
O92         O  0.73302541  0.67361074  0.22539221    -0.96300
O93         O  0.75963475  0.79057901  0.35259702    -0.91300
C94         C  0.71733050  0.66154859  0.24639523     1.13400
O95         O  0.67751493  0.21184818  0.84591198    -0.88000
C96         C  0.70838304  0.20607737  0.66241411     1.12100
O97         O  0.70444714  0.25596990  0.79392418    -1.35800
O98         O  0.72582291  0.15612838  0.72273583    -0.89400
O99         O  0.68880739  0.26000747  0.86558661    -0.90100
O100        O  0.76662317  0.24277560  0.83510811    -0.78900
O101        O  0.69739143  0.18645478  0.78064338    -1.01000
C102        C  0.81425178  0.22429104  0.75711914     1.22100
O103        O  0.75836609  0.28188110  0.76817886    -1.35900
Mn104      Mn  0.71163455  0.27563934  0.74672274     1.82100
O105        O  0.79941447  0.21691364  0.78195378    -0.78000
O106        O  0.77546849  0.17328339  0.71831592    -0.87400
C107        C  0.74410436  0.28326342  0.68421717     1.13200
C108        C  0.75564486  0.15106075  0.72253553     1.07900
O109        O  0.69608710  0.32297261  0.75468272    -0.78900
O110        O  0.73120112  0.22766822  0.73993837    -1.32600
O111        O  0.71686366  0.32505639  0.80057442    -0.98200
C112        C  0.83489427  0.30243540  0.79231043     1.06600
Mn113      Mn  0.76704410  0.22061580  0.70604059     1.48600
O114        O  0.81181969  0.30730142  0.81178326    -0.87400
Mn115      Mn  0.70025069  0.29214498  0.82935469     1.49600
O116        O  0.63264000  0.25192029  0.80810696    -0.91200
C117        C  0.71809655  0.17175350  0.79499905     1.19800
C118        C  0.62851265  0.28142397  0.81191119     1.11900
Mn119      Mn  0.75111622  0.23457836  0.78773478     1.81000
O120        O  0.76386222  0.26790777  0.69926734    -0.96400
Mn121      Mn  0.66882573  0.22097763  0.79728261     1.49300
C122        C  0.68390549  0.23037723  0.86929753     1.08400
Mn123      Mn  0.79337719  0.28599836  0.73270695     1.49900
C124        C  0.77773355  0.35652490  0.74144267     1.11300
O125        O  0.74643833  0.28908508  0.83793965    -1.02200
O126        O  0.73796259  0.20796843  0.66759163    -0.91900
C127        C  0.76035035  0.26744679  0.85133692     1.22600
O128        O  0.79872636  0.23881991  0.73717151    -1.02600
O129        O  0.68827683  0.20449115  0.68513724    -0.90000
O130        O  0.78350670  0.33321595  0.72289676    -0.89600
O131        O  0.65142198  0.30047218  0.81809417    -0.89600
Mn132      Mn  0.69518368  0.19410771  0.73363568     1.47900
O133        O  0.71960183  0.29204426  0.69910045    -0.78100
C134        C  0.70344366  0.33895132  0.77908366     1.15700
O135        O  0.74249418  0.18696784  0.80351940    -0.76800
O136        O  0.66404845  0.26957458  0.72920109    -0.76400
Mn137      Mn  0.76270746  0.31739557  0.80402573     1.51100
O138        O  0.83046770  0.29797159  0.76282512    -0.88800
O139        O  0.66384624  0.22484015  0.75074015    -0.96300
O140        O  0.77359195  0.35319411  0.77127922    -0.91300
C141        C  0.64894132  0.24503442  0.73655820     1.13400
O142        O  0.18439836  0.32378023  0.83708304    -0.88000
C143        C  0.18075192  0.28491782  0.65653431     1.12100
O144        O  0.22918160  0.29392903  0.78519844    -1.35800
O145        O  0.13091656  0.26602226  0.72028488    -0.89400
O146        O  0.23254757  0.31284190  0.85573600    -0.90100
O147        O  0.21635252  0.23163576  0.82931521    -0.78900
O148        O  0.16099150  0.29927454  0.77427043    -1.01000
C149        C  0.20249596  0.18137122  0.75120245     1.22100
O150        O  0.25653278  0.23932372  0.75992533    -1.35900
Mn151      Mn  0.24984114  0.28541047  0.73781992     1.82100
O152        O  0.19363509  0.19745317  0.77516957    -0.78000
O153        O  0.15078823  0.21777523  0.71067194    -0.87400
C154        C  0.25780452  0.25063103  0.67401276     1.13200
C155        C  0.12762032  0.23619674  0.71732071     1.07900
O156        O  0.29774704  0.30208724  0.74580772    -0.78900
O157        O  0.20271606  0.26437063  0.73238025    -1.32600
O158        O  0.29704537  0.28196848  0.79169845    -0.98200
C159        C  0.27816287  0.16436794  0.78589286     1.06600
Mn160      Mn  0.19835684  0.22699967  0.69846045     1.48600
O161        O  0.28072377  0.18723397  0.80605355    -0.87400
Mn162      Mn  0.26440737  0.29923784  0.82024745     1.49600
O163        O  0.22450132  0.36710868  0.79775460    -0.91200
C164        C  0.14714123  0.27985341  0.79037007     1.19800
C165        C  0.25404918  0.37066275  0.80207158     1.11900
Mn166      Mn  0.20934613  0.24616779  0.78050259     1.81000
O167        O  0.24437178  0.23041126  0.68969902    -0.96400
Mn168      Mn  0.19340930  0.32970478  0.78855461     1.49300
C169        C  0.20347967  0.31981082  0.86001432     1.08400
Mn170      Mn  0.26276185  0.20409378  0.72417167     1.49900
C171        C  0.33248896  0.21976065  0.73505853     1.11300
O172        O  0.26122297  0.25346174  0.82950176    -1.02200
O173        O  0.18562499  0.25555248  0.66066520    -0.91900
C174        C  0.24070797  0.23972977  0.84473308     1.22600
O175        O  0.21615129  0.19604680  0.72973623    -1.02600
O176        O  0.17513973  0.30432998  0.67927025    -0.90000
O177        O  0.31041575  0.21538145  0.71483551    -0.89600
O178        O  0.27246687  0.34732271  0.80813642    -0.89600
Mn179      Mn  0.16668576  0.29882786  0.72779939     1.47900
O180        O  0.26568198  0.27564850  0.68916629    -0.78100
C181        C  0.31204651  0.29619220  0.77156916     1.15700
O182        O  0.16226097  0.25499213  0.79734344    -0.76800
O183        O  0.24210420  0.33252498  0.71893973    -0.76400
Mn184      Mn  0.29047360  0.23608650  0.79655583     1.51100
O185        O  0.27600839  0.16936288  0.75622668    -0.88800
O186        O  0.19633711  0.33422468  0.74090296    -0.96300
O187        O  0.32686670  0.22376475  0.76468235    -0.91300
C188        C  0.21680912  0.34775684  0.72460608     1.13400
O189        O  0.29380831  0.80401506  0.83013414    -0.88000
C190        C  0.26555130  0.80665674  0.64323923     1.12100
O191        O  0.26821918  0.76091052  0.77418207    -1.35800
O192        O  0.24616616  0.86093890  0.70442861    -0.89400
O193        O  0.28249580  0.75548230  0.84732164    -0.90100
O194        O  0.20440649  0.77435067  0.81569556    -0.78900
O195        O  0.27509668  0.83114634  0.76327505    -1.01000
C196        C  0.15878708  0.79436705  0.73689903     1.22100
O197        O  0.21380840  0.73529440  0.74640520    -1.35900
Mn198      Mn  0.26132415  0.74112922  0.72575292     1.82100
O199        O  0.17421407  0.80053950  0.76178361    -0.78000
O200        O  0.19728430  0.84311272  0.69587359    -0.87400
C201        C  0.22825402  0.73364696  0.66332135     1.13200
C202        C  0.21655561  0.86586708  0.70105280     1.07900
O203        O  0.27772158  0.69284093  0.73143408    -0.78900
O204        O  0.24140090  0.78906650  0.72050470    -1.32600
O205        O  0.25579420  0.69301739  0.77700129    -0.98200
C206        C  0.13750345  0.71507580  0.77155371     1.06600
Mn207      Mn  0.20574701  0.79440466  0.68568140     1.48600
O208        O  0.16093723  0.71005045  0.78991792    -0.87400
Mn209      Mn  0.27174412  0.72519075  0.80888600     1.49600
O210        O  0.33899339  0.76346971  0.79110356    -0.91200
C211        C  0.25370468  0.84557794  0.77774894     1.19800
C212        C  0.34321128  0.73395732  0.79514879     1.11900
Mn213      Mn  0.22133800  0.78234063  0.76814989     1.81000
O214        O  0.20883445  0.74814490  0.67942265    -0.96400
Mn215      Mn  0.30343058  0.79575424  0.78073754     1.49300
C216        C  0.28857284  0.78460025  0.85278288     1.08400
Mn217      Mn  0.17869138  0.73134140  0.71094637     1.49900
C218        C  0.19285411  0.65987257  0.71889536     1.11300
O219        O  0.22548937  0.72901451  0.81412375    -1.02200
O220        O  0.23590479  0.80472450  0.64782723    -0.91900
C221        C  0.21089885  0.74884007  0.82964246     1.22600
O222        O  0.17231731  0.77859567  0.71579356    -1.02600
O223        O  0.28501142  0.81125291  0.66610068    -0.90000
O224        O  0.18788362  0.68311003  0.70041998    -0.89600
O225        O  0.32018110  0.71515318  0.80013356    -0.89600
Mn226      Mn  0.27709576  0.82324338  0.71491359     1.47900
O227        O  0.25325901  0.72530351  0.67735178    -0.78100
C228        C  0.27044599  0.67790200  0.75614798     1.15700
O229        O  0.22953023  0.82985544  0.78565111    -0.76800
O230        O  0.30930630  0.74750653  0.70927464    -0.76400
Mn231      Mn  0.20882877  0.70010092  0.78094340     1.51100
O232        O  0.14112668  0.72000168  0.74194188    -0.88800
O233        O  0.31066933  0.79294186  0.73246792    -0.96300
O234        O  0.19748112  0.66390147  0.74855829    -0.91300
C235        C  0.32521724  0.77129185  0.71817101     1.13400
O236        O  0.66475469  0.17775843  0.30379179    -0.88000
C237        C  0.84236964  0.21018110  0.32362044     1.12100
O238        O  0.71774172  0.21217843  0.26663262    -1.35800
O239        O  0.77759835  0.23017982  0.37057549    -0.89400
O240        O  0.64685512  0.19366290  0.25675631    -0.90100
O241        O  0.67589957  0.27539467  0.28390235    -0.78900
O242        O  0.72468168  0.20154859  0.33423978    -1.01000
C243        C  0.75713009  0.32130943  0.30246719     1.22100
O244        O  0.74596730  0.26674494  0.24507538    -1.35900
Mn245      Mn  0.76578451  0.21955783  0.24831240     1.82100
O246        O  0.73225525  0.30597443  0.30967188    -0.78000
O247        O  0.79129861  0.27830436  0.35298343    -0.87400
C248        C  0.83176647  0.24924153  0.24558644     1.13200
C249        C  0.78294162  0.25959017  0.37528673     1.07900
O250        O  0.75910371  0.20636723  0.19871958    -0.78900
O251        O  0.77045544  0.23717839  0.29722005    -1.32600
O252        O  0.71459843  0.22928221  0.20054296    -0.98200
C253        C  0.72322336  0.34301976  0.23000270     1.06600
Mn254      Mn  0.80549213  0.27230020  0.30505325     1.48600
O255        O  0.70232170  0.32148435  0.22602398    -0.87400
Mn256      Mn  0.68417792  0.21028505  0.22931777     1.49600
O257        O  0.70780361  0.14011347  0.26231990    -0.91200
C258        C  0.70901319  0.22094173  0.34911119     1.19800
C259        C  0.70280899  0.13846542  0.23256008     1.11900
Mn260      Mn  0.72394494  0.25836350  0.29071824     1.81000
O261        O  0.81753483  0.27074407  0.25961108    -0.96400
Mn262      Mn  0.71376152  0.17387653  0.29818210     1.49300
C263        C  0.64236159  0.18205630  0.28407677     1.08400
Mn264      Mn  0.78357751  0.29957947  0.24263391     1.49900
C265        C  0.77167864  0.28652446  0.17104062     1.11300
O266        O  0.67548648  0.25582663  0.23746551    -1.02200
O267        O  0.83984505  0.23948521  0.31784848    -0.91900
C268        C  0.66034459  0.26858782  0.25911864     1.22600
O269        O  0.77799458  0.30629168  0.28862698    -1.02600
O270        O  0.81903818  0.19166160  0.32677524    -0.90000
O271        O  0.79176646  0.28806285  0.19382253    -0.89600
O272        O  0.69576737  0.16283795  0.21614172    -0.89600
Mn273      Mn  0.77081402  0.20006130  0.33114342     1.47900
O274        O  0.81469359  0.22697286  0.23461914    -0.78100
C275        C  0.73456712  0.21580848  0.18430267     1.15700
O276        O  0.70507127  0.24774691  0.33659855    -0.76800
O277        O  0.78320690  0.17219008  0.25348562    -0.76400
Mn278      Mn  0.71005857  0.27412838  0.21111688     1.51100
O279        O  0.75280544  0.33680647  0.23099148    -0.88800
O280        O  0.75958902  0.17014695  0.29760972    -0.96300
O281        O  0.74194872  0.28837175  0.17600611    -0.91300
C282        C  0.77631642  0.15676928  0.27797997     1.13400
O283        O  0.20681801  0.70053888  0.16300034    -0.88000
C284        C  0.20544406  0.71882174  0.34688884     1.12100
O285        O  0.25206895  0.72063185  0.21698080    -1.35800
O286        O  0.15660009  0.74099408  0.28935533    -0.89400
O287        O  0.25416619  0.71333976  0.14279827    -0.90100
O288        O  0.24171010  0.78740405  0.17973728    -0.78900
O289        O  0.18418738  0.71631998  0.22971380    -1.01000
C290        C  0.22613383  0.83191615  0.26132479     1.22100
O291        O  0.28025726  0.77194901  0.24715888    -1.35900
Mn292      Mn  0.27242312  0.72429338  0.26500055     1.82100
O293        O  0.21800646  0.81652940  0.23657228    -0.78000
O294        O  0.17385126  0.79058888  0.29716696    -0.87400
C295        C  0.28194567  0.75477339  0.32933418     1.13200
C296        C  0.15154781  0.77058238  0.29223525     1.07900
O297        O  0.31917798  0.70557621  0.25659895    -0.78900
O298        O  0.22619105  0.74595433  0.27221917    -1.32600
O299        O  0.31988773  0.72826803  0.21207919    -0.98200
C300        C  0.30637417  0.84530269  0.22543456     1.06600
Mn301      Mn  0.22216741  0.78129689  0.30825191     1.48600
O302        O  0.31175957  0.82259241  0.20621401    -0.87400
Mn303      Mn  0.28697162  0.71857733  0.18040554     1.49600
O304        O  0.24643222  0.65163219  0.19487092    -0.91200
C305        C  0.16888421  0.73738786  0.21717544     1.19800
C306        C  0.27486119  0.64774748  0.18537207     1.11900
Mn307      Mn  0.23285918  0.76815550  0.22630912     1.81000
O308        O  0.26779193  0.77549332  0.31503545    -0.96400
Mn309      Mn  0.21556575  0.68719807  0.21067196     1.49300
C310        C  0.22456463  0.70810387  0.13950278     1.08400
Mn311      Mn  0.28516104  0.80551962  0.28465188     1.49900
C312        C  0.35637633  0.78582296  0.27480393     1.11300
O313        O  0.28585178  0.76417652  0.17946330    -1.02200
O314        O  0.20957052  0.74849746  0.34316126    -0.91900
C315        C  0.26733131  0.78094880  0.16538019     1.22600
O316        O  0.23953696  0.81643173  0.28190884    -1.02600
O317        O  0.20202759  0.69954385  0.32334328    -0.90000
O318        O  0.33314384  0.79308557  0.29312558    -0.89600
O319        O  0.29419719  0.67026127  0.18170277    -0.89600
Mn320      Mn  0.19171447  0.70977897  0.27511921     1.47900
O321        O  0.28892925  0.72994886  0.31354459    -0.78100
C322        C  0.33371332  0.71153452  0.23116153     1.15700
O323        O  0.18414697  0.76222923  0.21004118    -0.76800
O324        O  0.26357859  0.67596101  0.27867204    -0.76400
Mn325      Mn  0.31646634  0.77433888  0.21234324     1.51100
O326        O  0.29880283  0.84131285  0.25439085    -0.88800
O327        O  0.21911223  0.67643613  0.25600988    -0.96300
O328        O  0.35284798  0.78057630  0.24516991    -0.91300
C329        C  0.23945693  0.66085335  0.26923831     1.13400
C330        C  0.51802440  0.13622075  0.31639007     0.80400
N331        N  0.49552944  0.15876126  0.31108359    -0.77900
C332        C  0.46461648  0.15180807  0.31499034     0.82900
N333        N  0.45624401  0.12221509  0.32339291    -0.77800
C334        C  0.47803686  0.09909001  0.32855397     0.83000
N335        N  0.50946150  0.10628819  0.32542340    -0.79500
C336        C  0.52551804  0.29726523  0.22970684     0.80400
N337        N  0.52379056  0.31394061  0.20221685    -0.77900
C338        C  0.49571784  0.32392071  0.19045817     0.82900
N339        N  0.46866829  0.31795257  0.20658180    -0.77800
C340        C  0.46868601  0.30112743  0.23398088     0.83000
N341        N  0.49748904  0.29022759  0.24566492    -0.79500
C342        C  0.21000908  0.47209004  0.30285127     0.80400
N343        N  0.22507154  0.49922511  0.29264907    -0.77900
C344        C  0.21190634  0.52867305  0.29956323     0.82900
N345        N  0.18386122  0.53044199  0.31577961    -0.77800
C346        C  0.16900084  0.50392431  0.32588307     0.83000
N347        N  0.18234942  0.47521121  0.31940827    -0.79500
C348        C  0.28509160  0.52109965  0.13704540     0.80400
N349        N  0.27572377  0.49544156  0.15386377    -0.77900
C350        C  0.27815756  0.46592576  0.14097239     0.82900
N351        N  0.29022759  0.46223235  0.11115218    -0.77800
C352        C  0.30125873  0.48724407  0.09446771     0.83000
N353        N  0.29847283  0.51669100  0.10768383    -0.79500
C354        C  0.79003262  0.48329238  0.69623810     0.80400
N355        N  0.81655574  0.48295689  0.67796034    -0.77900
C356        C  0.82954976  0.51016948  0.66761598     0.82900
N357        N  0.81574000  0.53824808  0.67534449    -0.77800
C358        C  0.78864138  0.53896054  0.69306714     0.83000
N359        N  0.77593931  0.51145061  0.70411796    -0.79500
C360        C  0.66469982  0.52284263  0.80965994     0.80400
N361        N  0.67493380  0.49657080  0.79332642    -0.77900
C362        C  0.66478132  0.46728658  0.80216511     0.82900
N363        N  0.64644894  0.46427505  0.82863835    -0.77800
C364        C  0.63698167  0.49027425  0.84532920     0.83000
N365        N  0.64581357  0.51952653  0.83561360    -0.79500
C366        C  0.46505997  0.20296641  0.70554499     0.80400
N367        N  0.49182962  0.21843928  0.71544617    -0.77900
C368        C  0.52094609  0.20594373  0.70782157     0.82900
N369        N  0.52300506  0.17825431  0.69086553    -0.77800
C370        C  0.49640236  0.16285738  0.68158413     0.83000
N371        N  0.46775535  0.17534170  0.68893043    -0.79500
C372        C  0.44284806  0.32861259  0.80706066     0.80400
N373        N  0.47078858  0.31632961  0.79507265    -0.77900
C374        C  0.49895099  0.32363747  0.80995341     0.82900
N375        N  0.49883040  0.34223095  0.83648354    -0.77800
C376        C  0.47154475  0.35367912  0.84884137     0.83000
N377        N  0.44377519  0.34695025  0.83414749    -0.79500
N378        N  0.46101992  0.55120874  0.96177516    -0.36400
N379        N  0.44640691  0.48194602  0.96811474    -0.57000
N380        N  0.51371067  0.47390602  0.96886041    -0.36400
N381        N  0.52747873  0.54369404  0.97213581    -0.57000
C382        C  0.42930993  0.54997941  0.96316098     0.27200
C383        C  0.47003769  0.58127978  0.96813354     0.27200
C384        C  0.50430458  0.44376349  0.97300587     0.27200
C385        C  0.54523936  0.47504260  0.97185617     0.27200
C386        C  0.41857049  0.49245416  0.95652139     0.35800
C387        C  0.44714659  0.45032344  0.96198642     0.35800
C388        C  0.52785892  0.57487315  0.96441895     0.35800
C389        C  0.55665734  0.53228790  0.96505215     0.35800
C390        C  0.41739723  0.58000298  0.97019880    -0.21700
C391        C  0.44326520  0.59987507  0.97343265    -0.21700
C392        C  0.53059558  0.42506460  0.97953992    -0.21700
C393        C  0.55661772  0.44490687  0.97861904    -0.21700
C394        C  0.40059862  0.46727172  0.94505976    -0.22700
C395        C  0.41872048  0.44053862  0.94850037    -0.22700
C396        C  0.55794221  0.58353845  0.95435054    -0.22700
C397        C  0.57619912  0.55659819  0.95492555    -0.22700
C398        C  0.41144221  0.52459645  0.95097626    -0.18100
C399        C  0.50017640  0.59339772  0.96024544    -0.18100
C400        C  0.56366441  0.49986239  0.95981944    -0.18100
C401        C  0.47512605  0.43175554  0.96206581    -0.18100
H402        H  0.39269301  0.58714791  0.97080163     0.14800
H403        H  0.44248284  0.62545826  0.97657336     0.14800
H404        H  0.53119981  0.39943852  0.98165321     0.14800
H405        H  0.58120590  0.43757177  0.98014998     0.14800
H406        H  0.37778078  0.46844329  0.93333275     0.13100
H407        H  0.41264148  0.41708175  0.93966337     0.13100
H408        H  0.56541462  0.60604200  0.94484749     0.13100
H409        H  0.60025142  0.55439018  0.94598663     0.13100
H410        H  0.47578746  0.53260442  0.95158851     0.26400
H411        H  0.49967783  0.49289505  0.95860099     0.26400
N412        N  0.54020982  0.44406420  0.06414436    -0.36400
N413        N  0.47204526  0.44306067  0.05242863    -0.57000
N414        N  0.46987345  0.51048631  0.03531824    -0.36400
N415        N  0.53698753  0.51215952  0.05147571    -0.57000
C416        C  0.53219405  0.41741987  0.07996679     0.27200
C417        C  0.56815635  0.45381866  0.07648735     0.27200
C418        C  0.43866237  0.50387928  0.03916115     0.27200
C419        C  0.47345887  0.54179772  0.04258949     0.27200
C420        C  0.47697819  0.41248687  0.06051746     0.35800
C421        C  0.44234981  0.44462345  0.04070899     0.35800
C422        C  0.56859633  0.50842064  0.05421898     0.35800
C423        C  0.53198616  0.54286455  0.04416791     0.35800
C424        C  0.55661795  0.40850641  0.10000923    -0.21700
C425        C  0.57918874  0.43149453  0.09800010    -0.21700
C426        C  0.42218652  0.53174766  0.04635174    -0.21700
C427        C  0.44410056  0.55554074  0.04849977    -0.21700
C428        C  0.45053824  0.39432031  0.05362202    -0.22700
C429        C  0.42872836  0.41458215  0.04046972    -0.22700
C430        C  0.58389595  0.53679514  0.04800655    -0.22700
C431        C  0.56060606  0.55877368  0.04220674    -0.22700
C432        C  0.50232087  0.40251725  0.07960521    -0.18100
C433        C  0.58229102  0.48386424  0.07189789    -0.18100
C434        C  0.50244853  0.55778840  0.04830169    -0.18100
C435        C  0.42476421  0.47318856  0.03920852    -0.18100
H436        H  0.55731932  0.38853117  0.11600914     0.14800
H437        H  0.60036322  0.43229731  0.11243816     0.14800
H438        H  0.39715419  0.53461497  0.05143400     0.14800
H439        H  0.43921168  0.57997969  0.05533542     0.14800
H440        H  0.44685068  0.36950256  0.05902235     0.13100
H441        H  0.40452125  0.40859015  0.03429294     0.13100
H442        H  0.60894604  0.54179749  0.05072081     0.13100
H443        H  0.56428794  0.58388768  0.03902079     0.13100
H444        H  0.52656677  0.45612377  0.04765307     0.26400
H445        H  0.48766222  0.49410118  0.02995820     0.26400
C446        C  0.17549710  0.52898121  0.67956028     0.80400
N447        N  0.18750284  0.50137573  0.69167599    -0.77900
C448        C  0.17353857  0.47287037  0.68407787     0.82900
N449        N  0.14748001  0.47243630  0.66488908    -0.77800
C450        C  0.13569625  0.49980204  0.65293815     0.83000
N451        N  0.14998837  0.52763158  0.66002663    -0.79500
C452        C  0.30794032  0.49692279  0.80287115     0.80400
N453        N  0.32691653  0.50057572  0.82868141    -0.77900
C454        C  0.33400856  0.52997902  0.84006089     0.82900
N455        N  0.32273432  0.55598265  0.82527576    -0.77800
C456        C  0.30429554  0.55283119  0.79901617     0.83000
N457        N  0.29624004  0.52324909  0.78814459    -0.79500
C458        C  0.51002190  0.81561677  0.69332211     0.80400
N459        N  0.48392479  0.79916697  0.70366599    -0.77900
C460        C  0.45408916  0.80960701  0.69594337     0.82900
N461        N  0.45059136  0.83612951  0.67828467    -0.77800
C462        C  0.47624995  0.85252980  0.66851746     0.83000
N463        N  0.50564879  0.84213821  0.67579326    -0.79500
C464        C  0.52976927  0.69501264  0.80503859     0.80400
N465        N  0.50126939  0.70475457  0.79301059    -0.77900
C466        C  0.47377232  0.69557641  0.80756751     0.82900
N467        N  0.47507570  0.67719162  0.83376068    -0.77800
C468        C  0.50314527  0.66819287  0.84610672     0.83000
N469        N  0.53045165  0.67734190  0.83195236    -0.79500
C470        C  0.80139471  0.68770203  0.46680838     0.80400
N471        N  0.82941629  0.67271869  0.46127752    -0.77900
C472        C  0.84885848  0.66517266  0.48556351     0.82900
N473        N  0.83986222  0.67213879  0.51576520    -0.77800
C474        C  0.81178929  0.68699741  0.52188631     0.83000
N475        N  0.79255928  0.69514091  0.49717388    -0.79500
C476        C  0.68663899  0.80561547  0.54356763     0.80400
N477        N  0.69798338  0.79456655  0.51494634    -0.77900
C478        C  0.68855003  0.80882202  0.48747938     0.82900
N479        N  0.66881617  0.83414709  0.48884816    -0.77800
C480        C  0.65824594  0.84555262  0.51708067     0.83000
N481        N  0.66708094  0.83138073  0.54448200    -0.79500
C482        C  0.48512701  0.80437553  0.31318650     0.80400
N483        N  0.51285798  0.78855257  0.30627830    -0.77900
C484        C  0.54106516  0.80260653  0.31367246     0.82900
N485        N  0.54088551  0.83189043  0.32748265    -0.77800
C486        C  0.51388397  0.84800490  0.33322890     0.83000
N487        N  0.48587426  0.83398902  0.32665970    -0.79500
C488        C  0.46188553  0.67558349  0.19159494     0.80400
N489        N  0.46360098  0.65568231  0.16582782    -0.77900
C490        C  0.49209894  0.64608549  0.15410437     0.82900
N491        N  0.51906406  0.65607776  0.16828118    -0.77800
C492        C  0.51807060  0.67559529  0.19419748     0.83000
N493        N  0.48932879  0.68573503  0.20583034    -0.79500
N494        N  0.46725250  0.95999976  0.45909681    -0.36400
N495        N  0.53523737  0.96233041  0.47218213    -0.57000
N496        N  0.52513540  0.96404062  0.54130827    -0.36400
N497        N  0.45716144  0.95972302  0.52807084    -0.57000
C498        C  0.47846601  0.95245126  0.42980071     0.27200
C499        C  0.43697334  0.94960065  0.46017521     0.27200
C500        C  0.55596082  0.95475902  0.53974145     0.27200
C501        C  0.51383014  0.95404464  0.56973954     0.27200
C502        C  0.53584099  0.96342572  0.44007834     0.35800
C503        C  0.56559207  0.96438236  0.48211253     0.35800
C504        C  0.42693634  0.95761975  0.51796222     0.35800
C505        C  0.45596380  0.96194623  0.56003911     0.35800
C506        C  0.45388487  0.94004170  0.41137730    -0.21700
C507        C  0.42780568  0.93829874  0.43057581    -0.21700
C508        C  0.56478361  0.94119047  0.56833395    -0.21700
C509        C  0.53831913  0.94058613  0.58710677    -0.21700
C510        C  0.56678888  0.96675537  0.42948035    -0.22700
C511        C  0.58565082  0.96705253  0.45609725    -0.22700
C512        C  0.40622558  0.95898543  0.54358197    -0.22700
C513        C  0.42462070  0.96204410  0.57030869    -0.22700
C514        C  0.51088776  0.95232590  0.42062112    -0.18100
C515        C  0.41870280  0.94557922  0.48786334    -0.18100
C516        C  0.48157871  0.95331616  0.57946978    -0.18100
C517        C  0.57558368  0.95406218  0.51224133    -0.18100
H518        H  0.45451605  0.93120297  0.38716168     0.14800
H519        H  0.40518828  0.92797214  0.42405039     0.14800
H520        H  0.58758989  0.93102144  0.57437685     0.14800
H521        H  0.53704055  0.92982854  0.61034483     0.14800
H522        H  0.57502868  0.96593664  0.40503275     0.13100
H523        H  0.61132261  0.96651655  0.45619259     0.13100
H524        H  0.38078000  0.95549450  0.54314745     0.13100
H525        H  0.41616704  0.96098734  0.59464956     0.13100
H526        H  0.48026339  0.96883206  0.47802634     0.26400
H527        H  0.51212017  0.97463773  0.52335853     0.26400
N528        N  0.43500887  0.05481902  0.55468892    -0.36400
N529        N  0.43053816  0.04691926  0.48416625    -0.57000
N530        N  0.49706715  0.03598025  0.47537362    -0.36400
N531        N  0.50203236  0.04664819  0.54449210    -0.57000
C532        C  0.40902377  0.07217345  0.54722968     0.27200
C533        C  0.44736642  0.06805915  0.58145492     0.27200
C534        C  0.48579113  0.04343806  0.44624165     0.27200
C535        C  0.52568727  0.05022996  0.47839625     0.27200
C536        C  0.40036883  0.04804192  0.49461086     0.35800
C537        C  0.43012651  0.03177129  0.45567820     0.35800
C538        C  0.50088439  0.04463619  0.57658478     0.35800
C539        C  0.53232958  0.04062865  0.53559027     0.35800
C540        C  0.40379095  0.09543991  0.57030230    -0.21700
C541        C  0.42800807  0.09299141  0.59177655    -0.21700
C542        C  0.50764199  0.06247233  0.43066409    -0.21700
C543        C  0.53288418  0.06646552  0.45076784    -0.21700
C544        C  0.38046740  0.03318338  0.47298829    -0.22700
C545        C  0.39972438  0.02134396  0.44892170    -0.22700
C546        C  0.53062245  0.03643328  0.58807319    -0.22700
C547        C  0.55065892  0.03458919  0.56213432    -0.22700
C548        C  0.39089947  0.06869612  0.51923761    -0.18100
C549        C  0.47706275  0.06007420  0.59504836    -0.18100
C550        C  0.54464157  0.05041611  0.50607568    -0.18100
C551        C  0.45565297  0.03428251  0.43410355    -0.18100
H552        H  0.38524051  0.11329652  0.57093046     0.14800
H553        H  0.43168928  0.10919109  0.61160343     0.14800
H554        H  0.50506817  0.07405902  0.40799366     0.14800
H555        H  0.55354188  0.08089742  0.44597635     0.14800
H556        H  0.35483538  0.03185347  0.47410898     0.13100
H557        H  0.39201339  0.00863361  0.42778566     0.13100
H558        H  0.53780056  0.03551533  0.61277855     0.13100
H559        H  0.57618109  0.03162216  0.56281604     0.13100
H560        H  0.44438011  0.03572135  0.54161435     0.26400
H561        H  0.48564622  0.02209912  0.49231063     0.26400
C562        C  0.18339266  0.70385054  0.53633093     0.80400
N563        N  0.19672037  0.70582760  0.50653863    -0.77900
C564        C  0.18064804  0.69421381  0.48048149     0.82900
N565        N  0.15160492  0.68108394  0.48493224    -0.77800
C566        C  0.13841181  0.67900930  0.51429935     0.83000
N567        N  0.15443209  0.69022902  0.53984427    -0.79500
C568        C  0.31371163  0.79308203  0.45887159     0.80400
N569        N  0.33152651  0.81993437  0.45836975    -0.77900
C570        C  0.33951281  0.83496085  0.48581422     0.82900
N571        N  0.33018998  0.82307335  0.51397760    -0.77800
C572        C  0.31217466  0.79654578  0.51514959     0.83000
N573        N  0.30320172  0.78170123  0.48742736    -0.79500
C574        C  0.28662667  0.22286355  0.53799304     0.80400
N575        N  0.30370735  0.19522376  0.53727332    -0.77900
C576        C  0.31372856  0.18173024  0.50949953     0.82900
N577        N  0.30639287  0.19582382  0.48169775    -0.77800
C578        C  0.28880329  0.22295588  0.48088759     0.83000
N579        N  0.27861059  0.23671895  0.50933567    -0.79500
C580        C  0.19145142  0.33125532  0.47593367     0.80400
N581        N  0.16689638  0.35136904  0.47110947    -0.77900
C582        C  0.15052380  0.36364315  0.49602806     0.82900
N583        N  0.15839575  0.35541913  0.52603901    -0.77800
C584        C  0.18283300  0.33498463  0.53089997     0.83000
N585        N  0.19867315  0.32203545  0.50578394    -0.79500
C586        C  0.79583212  0.50908463  0.32548996     0.80400
N587        N  0.77845703  0.48256201  0.31784827    -0.77900
C588        C  0.78769191  0.45359902  0.32932978     0.82900
N589        N  0.81470589  0.45147559  0.34693687    -0.77800
C590        C  0.83203080  0.47772502  0.35373525     0.83000
N591        N  0.82244777  0.50620674  0.34314698    -0.79500
C592        C  0.68871827  0.47376075  0.22199276     0.80400
N593        N  0.69462109  0.50268112  0.23634936    -0.77900
C594        C  0.68220156  0.52963941  0.22315982     0.82900
N595        N  0.66448065  0.52689852  0.19633598    -0.77800
C596        C  0.66012326  0.49872943  0.18151387     0.83000
N597        N  0.67209094  0.47220693  0.19444147    -0.79500
N598        N  0.95638373  0.44812789  0.47620473    -0.36400
N599        N  0.94870759  0.46382673  0.54405291    -0.57000
N600        N  0.94730440  0.53226717  0.53346752    -0.36400
N601        N  0.95193578  0.51689445  0.46583502    -0.57000
C602        C  0.94687818  0.41956969  0.48726775     0.27200
C603        C  0.94952292  0.44851496  0.44474015     0.27200
C604        C  0.93411506  0.53026084  0.56283208     0.27200
C605        C  0.93517173  0.55869763  0.51990507     0.27200
C606        C  0.95182367  0.43187495  0.54507983     0.35800
C607        C  0.94975793  0.47468690  0.57443123     0.35800
C608        C  0.95876249  0.50582512  0.43634171     0.35800
C609        C  0.95430181  0.54878171  0.46492115     0.35800
C610        C  0.93620986  0.40083633  0.46207730    -0.21700
C611        C  0.93790255  0.41908353  0.43526845    -0.21700
C612        C  0.91449811  0.55633696  0.56833272    -0.21700
C613        C  0.91496066  0.57402983  0.54134969    -0.21700
C614        C  0.95450050  0.42225626  0.57635336    -0.22700
C615        C  0.95364512  0.44938625  0.59494270    -0.22700
C616        C  0.96552796  0.53101864  0.41651578    -0.22700
C617        C  0.96300872  0.55830095  0.43471516    -0.22700
C618        C  0.94314420  0.41144078  0.51975640    -0.18100
C619        C  0.94816605  0.47596400  0.42551901    -0.18100
C620        C  0.94073316  0.56876384  0.48827845    -0.18100
C621        C  0.93708092  0.50443638  0.58394478    -0.18100
H622        H  0.92631031  0.37715459  0.46326605     0.14800
H623        H  0.92943378  0.41230773  0.41183396     0.14800
H624        H  0.89992639  0.56152461  0.58901136     0.14800
H625        H  0.90058176  0.59498938  0.53778867     0.14800
H626        H  0.95468805  0.39808638  0.58488387     0.13100
H627        H  0.95270255  0.45024551  0.62071170     0.13100
H628        H  0.96957471  0.53008246  0.39115836     0.13100
H629        H  0.96461742  0.58241495  0.42614591     0.13100
H630        H  0.96424499  0.46725358  0.48975011     0.26400
H631        H  0.96314738  0.51618810  0.52305283     0.26400
N632        N  0.04355585  0.54891529  0.45759906    -0.36400
N633        N  0.02839863  0.54143280  0.52335878    -0.57000
N634        N  0.01921305  0.47142074  0.51895356    -0.36400
N635        N  0.03878771  0.47948938  0.45320724    -0.57000
C636        C  0.05390716  0.57642804  0.47117680     0.27200
C637        C  0.06413736  0.54120727  0.43374986     0.27200
C638        C  0.02610330  0.47480624  0.55018890     0.27200
C639        C  0.02552766  0.44078964  0.51106912     0.27200
C640        C  0.02448529  0.57317093  0.52170673     0.35800
C641        C  0.02053381  0.53302007  0.55316366     0.35800
C642        C  0.04398668  0.48726293  0.42266823     0.35800
C643        C  0.02875611  0.44907735  0.45324752     0.35800
C644        C  0.08095495  0.58648656  0.45521930    -0.21700
C645        C  0.08731800  0.56440419  0.43172389    -0.21700
C646        C  0.03376242  0.44553965  0.56293621    -0.21700
C647        C  0.03288648  0.42391055  0.53830271    -0.21700
C648        C  0.01280933  0.58488292  0.55055940    -0.22700
C649        C  0.01149112  0.55945142  0.57086519    -0.22700
C650        C  0.03690560  0.46171902  0.40281863    -0.22700
C651        C  0.02759830  0.43733768  0.42232810    -0.22700
C652        C  0.04086252  0.59140783  0.49892437    -0.18100
C653        C  0.06296118  0.51334292  0.41435105    -0.18100
C654        C  0.03297408  0.42980769  0.47990865    -0.18100
C655        C  0.03003704  0.50409585  0.56623494    -0.18100
H656        H  0.09584672  0.60668271  0.46077073     0.14800
H657        H  0.10761761  0.56488768  0.41590039     0.14800
H658        H  0.04108349  0.44052326  0.58702350     0.14800
H659        H  0.04023541  0.39927179  0.53955977     0.14800
H660        H  0.00942773  0.60958321  0.55733001     0.13100
H661        H  0.00629312  0.56041691  0.59612718     0.13100
H662        H  0.04107656  0.45992621  0.37740672     0.13100
H663        H  0.02341886  0.41297395  0.41497364     0.13100
H664        H  0.02359903  0.53602506  0.46438844     0.26400
H665        H  0.01421867  0.48971161  0.50335116     0.26400
C666        C  0.78776092  0.31172333  0.55730905     0.80400
N667        N  0.81537112  0.32832873  0.55772071    -0.77900
C668        C  0.82880577  0.33808329  0.53025497     0.82900
N669        N  0.81474437  0.33115818  0.50209564    -0.77800
C670        C  0.78744246  0.31415116  0.50109232     0.83000
N671        N  0.77398259  0.30409195  0.52886032    -0.79500
C672        C  0.66655043  0.19003210  0.47716848     0.80400
N673        N  0.64605928  0.16508596  0.47730908    -0.77900
C674        C  0.63277412  0.15505524  0.50475882     0.82900
N675        N  0.64035774  0.16967337  0.53260204    -0.77800
C676        C  0.66140075  0.19405054  0.53337939     0.83000
N677        N  0.67484824  0.20417039  0.50548792    -0.79500
C678        C  0.81193397  0.68557146  0.04402159     0.80400
N679        N  0.80105535  0.69864116  0.01643410    -0.77900
C680        C  0.80847649  0.68428944  0.98790457     0.82900
N681        N  0.82609384  0.65715783  0.98733038    -0.77800
C682        C  0.83642008  0.64406256  0.01451405     0.83000
N683        N  0.82972752  0.65853165  0.04252330    -0.79500
C684        C  0.69063988  0.80672001  0.96723146     0.80400
N685        N  0.70180750  0.79856615  0.99653130    -0.77900
C686        C  0.68472094  0.80653895  0.02323424     0.82900
N687        N  0.65639278  0.82156094  0.02033217    -0.77800
C688        C  0.64482810  0.82863957  0.99126278     0.83000
N689        N  0.66221891  0.82178215  0.96491426    -0.79500
C690        C  0.01239401  0.70183342  0.82626929     0.80400
N691        N  0.98426829  0.71482860  0.81641534    -0.77900
C692        C  0.95610976  0.70082716  0.82442166     0.82900
N693        N  0.95653063  0.67333759  0.84126819    -0.77800
C694        C  0.98446166  0.66016751  0.85047017     0.83000
N695        N  0.01207152  0.67443184  0.84280418    -0.79500
C696        C  0.02982764  0.82246039  0.69827424     0.80400
N697        N  0.02512717  0.83981774  0.67140340    -0.77900
C698        C  0.99523521  0.84648027  0.66141287     0.82900
N699        N  0.97022628  0.83636578  0.67847796    -0.77800
C700        C  0.97422374  0.81912489  0.70499430     0.83000
N701        N  0.00412009  0.81166764  0.71491895    -0.79500
C702        C  0.67958418  0.98691931  0.82479446     0.80400
N703        N  0.65287878  0.99083030  0.84281831    -0.77900
C704        C  0.64272871  0.02023483  0.85166246     0.82900
N705        N  0.65985923  0.04589530  0.84329349    -0.77800
C706        C  0.68668806  0.04277631  0.82547319     0.83000
N707        N  0.69639310  0.01316687  0.81563034    -0.79500
C708        C  0.79370961  0.02173874  0.71415683     0.80400
N709        N  0.79056541  0.99285325  0.72864276    -0.77900
C710        C  0.80087166  0.96595254  0.71290793     0.82900
N711        N  0.81398292  0.96868967  0.68333185    -0.77800
C712        C  0.81639459  0.99702119  0.66902401     0.83000
N713        N  0.80674596  0.02338107  0.68475263    -0.79500
C714        C  0.27625724  0.21205139  0.97657205     0.80400
N715        N  0.30425312  0.19569670  0.97487287    -0.77900
C716        C  0.31805249  0.18409617  0.00142840     0.82900
N717        N  0.30368625  0.18912730  0.02995116    -0.77800
C718        C  0.27598516  0.20541308  0.03298808     0.83000
N719        N  0.26196239  0.21717836  0.00592785    -0.79500
C720        C  0.16605482  0.30588806  0.04111438     0.80400
N721        N  0.17422957  0.30636859  0.00992969    -0.77900
C722        C  0.16684169  0.33187565  0.99200333     0.82900
N723        N  0.15260332  0.35772780  0.00573773    -0.77800
C724        C  0.14532231  0.35777342  0.03741637     0.83000
N725        N  0.15191397  0.33168132  0.05462831    -0.79500
C726        C  0.69733068  0.00732630  0.18692100     0.80400
N727        N  0.71483458  0.98217589  0.19784727    -0.77900
C728        C  0.70717463  0.95175903  0.18861798     0.82900
N729        N  0.68168931  0.94661162  0.16965846    -0.77800
C730        C  0.66433956  0.97125623  0.15903034     0.83000
N731        N  0.67208371  0.00130692  0.16773906    -0.79500
C732        C  0.82270381  0.97721621  0.32159913     0.80400
N733        N  0.81140108  0.00376415  0.30692376    -0.77900
C734        C  0.82007238  0.03327949  0.31780625     0.82900
N735        N  0.83933683  0.03610247  0.34363285    -0.77800
C736        C  0.85013417  0.00975646  0.35838989     0.83000
N737        N  0.84200800  0.98069948  0.34716675    -0.79500
N738        N  0.43403553  0.04543341  0.96022486    -0.36400
N739        N  0.44768065  0.97826189  0.96979267    -0.57000
N740        N  0.46650760  0.98716672  0.03576972    -0.36400
N741        N  0.44857219  0.05443978  0.02646852    -0.57000
C742        C  0.42049715  0.03131599  0.93460338     0.27200
C743        C  0.41649690  0.07174852  0.96717704     0.27200
C744        C  0.45981896  0.95568316  0.03574810     0.27200
C745        C  0.46408224  0.99720289  0.06628434     0.27200
C746        C  0.44666848  0.97860562  0.93783357     0.35800
C747        C  0.45621295  0.94861841  0.97794156     0.35800
C748        C  0.44111411  0.08460890  0.01897163     0.35800
C749        C  0.46142591  0.05534417  0.05578101     0.35800
C750        C  0.39520625  0.04975563  0.92422983    -0.21700
C751        C  0.39258137  0.07504179  0.94484858    -0.21700
C752        C  0.45680727  0.94497462  0.06656920    -0.21700
C753        C  0.45936212  0.97118408  0.08593305    -0.21700
C754        C  0.45523920  0.94907410  0.92543205    -0.22700
C755        C  0.46066532  0.92981428  0.95103493    -0.22700
C756        C  0.44950569  0.10512079  0.04351189    -0.22700
C757        C  0.46231038  0.08651982  0.06692067    -0.22700
C758        C  0.42906304  0.00135319  0.92130751    -0.18100
C759        C  0.42068687  0.09226726  0.99377449    -0.18100
C760        C  0.45981566  0.02922240  0.07621599    -0.18100
C761        C  0.45202902  0.93721592  0.00878691    -0.18100
H762        H  0.37916367  0.04491512  0.90470889     0.14800
H763        H  0.37427811  0.09309025  0.94395944     0.14800
H764        H  0.45086996  0.92118356  0.07408747     0.14800
H765        H  0.45542914  0.97118084  0.11136396     0.14800
H766        H  0.45449464  0.94146094  0.90072165     0.13100
H767        H  0.46578426  0.90462049  0.94996714     0.13100
H768        H  0.44446353  0.13032646  0.04537876     0.13100
H769        H  0.46841440  0.09445477  0.09073753     0.13100
H770        H  0.45389925  0.03712615  0.97227046     0.26400
H771        H  0.46923755  0.00166051  0.01613613     0.26400
N772        N  0.52899586  0.97003996  0.97278621    -0.36400
N773        N  0.53554249  0.95397230  0.04035423    -0.57000
N774        N  0.53435551  0.02056047  0.05995998    -0.36400
N775        N  0.53128919  0.03726260  0.99260579    -0.57000
C776        C  0.53757233  0.93909151  0.97014491     0.27200
C777        C  0.53592414  0.98350909  0.94452455     0.27200
C778        C  0.54238572  0.00733124  0.08799916     0.27200
C779        C  0.54057388  0.05194491  0.06252449     0.27200
C780        C  0.53389819  0.92458833  0.02746294     0.35800
C781        C  0.53624732  0.95053083  0.07220782     0.35800
C782        C  0.52931209  0.04051938  0.96074703     0.35800
C783        C  0.53261288  0.06678480  0.00545908     0.35800
C784        C  0.54672214  0.93216299  0.93911469    -0.21700
C785        C  0.54587048  0.96015140  0.92299125    -0.21700
C786        C  0.55137742  0.03099930  0.10937364    -0.21700
C787        C  0.54950757  0.05925698  0.09351612    -0.21700
C788        C  0.53335674  0.90217897  0.05141901    -0.22700
C789        C  0.53504869  0.91866785  0.07978051    -0.22700
C790        C  0.52834465  0.07237483  0.95316401    -0.22700
C791        C  0.53042912  0.08903146  0.98134750    -0.22700
C792        C  0.54190147  0.91781355  0.99554172    -0.18100
C793        C  0.53833175  0.01653219  0.93881059    -0.18100
C794        C  0.54334092  0.07329009  0.03687188    -0.18100
C795        C  0.54654740  0.97443470  0.09339450    -0.18100
H796        H  0.55532936  0.90965859  0.92967648     0.14800
H797        H  0.55366580  0.96304910  0.89865243     0.14800
H798        H  0.56007340  0.02806916  0.13336809     0.14800
H799        H  0.55668102  0.08222698  0.10288592     0.14800
H800        H  0.53403818  0.87658272  0.04874013     0.13100
H801        H  0.53742511  0.90844533  0.10318581     0.13100
H802        H  0.52899554  0.08244885  0.92956615     0.13100
H803        H  0.53219350  0.11456708  0.98312964     0.13100
H804        H  0.52172637  0.98173914  0.99335681     0.26400
H805        H  0.52809418  0.00855929  0.03940888     0.26400
C806        C  0.68879114  0.18973696  0.05659025     0.80400
N807        N  0.66105278  0.17386010  0.06039101    -0.77900
C808        C  0.64253947  0.16651731  0.03508886     0.82900
N809        N  0.65233717  0.17384674  0.00547464    -0.77800
C810        C  0.67999044  0.18951694  0.00077663     0.83000
N811        N  0.69831145  0.19796795  0.02654126    -0.79500
C812        C  0.80391831  0.28460818  0.98146898     0.80400
N813        N  0.79524877  0.27249125  0.01050328    -0.77900
C814        C  0.80761333  0.28554778  0.03791992     0.82900
N815        N  0.82709604  0.31080733  0.03590183    -0.77800
C816        C  0.83441236  0.32379120  0.00767957     0.83000
N817        N  0.82276424  0.31088864  0.98049556    -0.79500
C818        C  0.32857959  0.97444474  0.19166948     0.80400
N819        N  0.35427392  0.98077189  0.17312371    -0.77900
C820        C  0.36047202  0.01110209  0.16479837     0.82900
N821        N  0.34073263  0.03460010  0.17402481    -0.77800
C822        C  0.31510560  0.02826605  0.19220060     0.83000
N823        N  0.30905903  0.99829030  0.20137193    -0.79500
C824        C  0.19911891  0.02589106  0.28833294     0.80400
N825        N  0.17936515  0.02386955  0.31384565    -0.77900
C826        C  0.16780768  0.99559307  0.32348697     0.82900
N827        N  0.17669205  0.96850024  0.30817269    -0.77800
C828        C  0.19689137  0.96878910  0.28293840     0.83000
N829        N  0.20835912  0.99794594  0.27272162    -0.79500
C830        C  0.98285856  0.69427576  0.18724060     0.80400
N831        N  0.00956912  0.70847310  0.19952922    -0.77900
C832        C  0.03909321  0.69872039  0.18933391     0.82900
N833        N  0.04151993  0.67403319  0.16825023    -0.77800
C834        C  0.01517739  0.65992864  0.15627818     0.83000
N835        N  0.98610568  0.67014850  0.16574177    -0.79500
C836        C  0.96444365  0.80127653  0.28465334     0.80400
N837        N  0.99388638  0.79276676  0.27385562    -0.77900
C838        C  0.01989749  0.80281708  0.29038104     0.82900
N839        N  0.01624165  0.81907393  0.31807293    -0.77800
C840        C  0.98709117  0.82626350  0.32921246     0.83000
N841        N  0.96124942  0.81798149  0.31226677    -0.79500
N842        N  0.93352735  0.45068408  0.08618170    -0.36400
N843        N  0.00317899  0.44798347  0.09095300    -0.57000
N844        N  0.01393761  0.44639077  0.02226103    -0.36400
N845        N  0.94658489  0.44659629  0.01685961    -0.57000
C846        C  0.93659414  0.43819281  0.11563157     0.27200
C847        C  0.90534158  0.44038543  0.07467250     0.27200
C848        C  0.04093050  0.43505355  0.03509311     0.27200
C849        C  0.00862258  0.42901620  0.99535483     0.27200
C850        C  0.99381129  0.44951530  0.12179370     0.35800
C851        C  0.03480187  0.45356655  0.09046837     0.35800
C852        C  0.91555200  0.45359228  0.01861443     0.35800
C853        C  0.95504414  0.44802033  0.98603359     0.35800
C854        C  0.90870887  0.42292982  0.12408895    -0.21700
C855        C  0.88885205  0.42450769  0.09824555    -0.21700
C856        C  0.05277060  0.41042024  0.01608998    -0.21700
C857        C  0.03239476  0.40658466  0.99116204    -0.21700
C858        C  0.01970684  0.45554831  0.14107850    -0.22700
C859        C  0.04549031  0.45915693  0.12122950    -0.22700
C860        C  0.90435607  0.46047875  0.98836939    -0.22700
C861        C  0.92956276  0.45713359  0.96767325    -0.22700
C862        C  0.96536487  0.43586180  0.13285219    -0.18100
C863        C  0.89696960  0.43933985  0.04206841    -0.18100
C864        C  0.98246016  0.43269333  0.97487723    -0.18100
C865        C  0.05455421  0.44546305  0.06415344    -0.18100
H866        H  0.90413374  0.40987205  0.14566815     0.14800
H867        H  0.86617897  0.41264926  0.09590367     0.14800
H868        H  0.07294780  0.39525826  0.02045866     0.14800
H869        H  0.03433197  0.38829181  0.97291966     0.14800
H870        H  0.02020233  0.45536902  0.16684974     0.13100
H871        H  0.06983418  0.46224561  0.12880736     0.13100
H872        H  0.87992876  0.46386402  0.98138866     0.13100
H873        H  0.92850884  0.45799844  0.94193931     0.13100
H874        H  0.95096103  0.46241270  0.07327554     0.26400
H875        H  0.00039054  0.46530142  0.03127376     0.26400
N876        N  0.96387628  0.52905704  0.96544645    -0.36400
N877        N  0.97552289  0.53407046  0.03456190    -0.57000
N878        N  0.04505855  0.53468850  0.02527410    -0.36400
N879        N  0.04393783  0.54843989  0.93626871    -0.57000
C880        C  0.93364113  0.53256172  0.97565113     0.27200
C881        C  0.96380557  0.53166134  0.93330485     0.27200
C882        C  0.04392564  0.54488907  0.05582761     0.27200
C883        C  0.07379290  0.54297946  0.01360135     0.27200
C884        C  0.94338145  0.53457501  0.03481078     0.35800
C885        C  0.98507594  0.53912881  0.06495969     0.35800
C886        C  0.02058974  0.52861752  0.92675938     0.35800
C887        C  0.06073416  0.53208453  0.95799435     0.35800
C888        C  0.91389035  0.53553352  0.94936948    -0.21700
C889        C  0.93297230  0.53498441  0.92263608    -0.21700
C890        C  0.07342395  0.55699467  0.06445089    -0.21700
C891        C  0.09221021  0.55590557  0.03774446    -0.21700
C892        C  0.93250250  0.53909484  0.06572695    -0.22700
C893        C  0.95878594  0.54193333  0.08473863    -0.22700
C894        C  0.02396327  0.49926231  0.94062151    -0.22700
C895        C  0.04928107  0.50141865  0.96071917    -0.22700
C896        C  0.92396692  0.53874175  0.00756826    -0.18100
C897        C  0.99134786  0.53992242  0.91580670    -0.18100
C898        C  0.07962641  0.54736735  0.98085550    -0.18100
C899        C  0.01587208  0.54930853  0.07405801    -0.18100
H900        H  0.88859854  0.54006510  0.94959146     0.14800
H901        H  0.92547775  0.53962910  0.89849950     0.14800
H902        H  0.07987688  0.56839539  0.08672943     0.14800
H903        H  0.11554727  0.56637970  0.03558813     0.14800
H904        H  0.90813177  0.54235326  0.07337157     0.13100
H905        H  0.95864273  0.54790480  0.10989732     0.13100
H906        H  0.00653382  0.48060550  0.94023520     0.13100
H907        H  0.05534568  0.48412465  0.97843987     0.13100
H908        H  0.98409958  0.52929487  0.97942685     0.26400
H909        H  0.02604898  0.52683146  0.01176516     0.26400
C910        C  0.30541501  0.82480709  0.03974228     0.80400
N911        N  0.29179832  0.81775653  0.01101706    -0.77900
C912        C  0.30688261  0.82614002  0.98342851     0.82900
N913        N  0.33584925  0.84021580  0.98475384    -0.77800
C914        C  0.34993859  0.84623571  0.01308613     0.83000
N915        N  0.33439635  0.83903120  0.04036651    -0.79500
C916        C  0.17301215  0.70788516  0.95631824     0.80400
N917        N  0.17994950  0.71976953  0.98607427    -0.77900
C918        C  0.16898053  0.70456045  0.01279652     0.82900
N919        N  0.15225106  0.67720097  0.00924426    -0.77800
C920        C  0.14616003  0.66509556  0.97986986     0.83000
N921        N  0.15635662  0.68045654  0.95375476    -0.79500
C922        C  0.02257068  0.27656339  0.21426192     0.80400
N923        N  0.01691624  0.30485407  0.19985175    -0.77900
C924        C  0.98694185  0.31533730  0.19458513     0.82900
N925        N  0.96199835  0.29737777  0.20349977    -0.77800
C926        C  0.96613768  0.26876202  0.21748695     0.83000
N927        N  0.99679583  0.25830571  0.22349691    -0.79500
C928        C  0.02467905  0.17729533  0.33015243     0.80400
N929        N  0.99375809  0.18374838  0.32427403    -0.77900
C930        C  0.97094753  0.17239009  0.34403919     0.82900
N931        N  0.97936490  0.15517443  0.36997133    -0.77800
C932        C  0.01045282  0.14937104  0.37597768     0.83000
N933        N  0.03281520  0.15996102  0.35576578    -0.79500
C934        C  0.96357170  0.30529272  0.83929595     0.80400
N935        N  0.99179789  0.29386425  0.82759257    -0.77900
C936        C  0.01980451  0.30725974  0.83755004     0.82900
N937        N  0.01919734  0.33281007  0.85790676    -0.77800
C938        C  0.99111292  0.34439537  0.86895163     0.83000
N939        N  0.96384041  0.33039545  0.85946431    -0.79500
C940        C  0.94214952  0.20056013  0.71243997     0.80400
N941        N  0.94119234  0.18379025  0.68471415    -0.77900
C942        C  0.96804671  0.17352764  0.67053594     0.82900
N943        N  0.99631905  0.17995128  0.68394898    -0.77800
C944        C  0.99813045  0.19696270  0.71154017     0.83000
N945        N  0.97082990  0.20750975  0.72606921    -0.79500
N946        N  0.04758643  0.94385090  0.44689799    -0.36400
N947        N  0.97849325  0.95635834  0.45707472    -0.57000
N948        N  0.98849089  0.02090671  0.47820336    -0.36400
N949        N  0.07731703  0.02478685  0.45164082    -0.57000
C950        C  0.03492484  0.91714559  0.43411884     0.27200
C951        C  0.07847302  0.94517426  0.43749346     0.27200
C952        C  0.95729789  0.02286901  0.47105052     0.27200
C953        C  0.00039783  0.05053711  0.47638414     0.27200
C954        C  0.97787613  0.92496137  0.45111602     0.35800
C955        C  0.94836581  0.96537021  0.46348980     0.35800
C956        C  0.08899964  0.99663206  0.46131956     0.35800
C957        C  0.05669783  0.03419189  0.47451389     0.35800
C958        C  0.05864313  0.90071087  0.41745687    -0.21700
C959        C  0.08604859  0.91822605  0.41989626    -0.21700
C960        C  0.94848777  0.05439358  0.46816769    -0.21700
C961        C  0.97565622  0.07194169  0.47166932    -0.21700
C962        C  0.94709150  0.91365847  0.45442164    -0.22700
C963        C  0.92831654  0.93944902  0.46165522    -0.22700
C964        C  0.07811196  0.98963006  0.49147367    -0.22700
C965        C  0.05719920  0.01326119  0.49936286    -0.22700
C966        C  0.00219410  0.90852584  0.43467967    -0.18100
C967        C  0.09739292  0.97309486  0.43913247    -0.18100
C968        C  0.03267608  0.05667267  0.46912447    -0.18100
C969        C  0.93811214  0.99705146  0.46162510    -0.18100
H970        H  0.05650560  0.87912274  0.40343908     0.14800
H971        H  0.10836011  0.91299214  0.40805311     0.14800
H972        H  0.92541443  0.06358903  0.46166335     0.14800
H973        H  0.97724173  0.09727841  0.46803915     0.14800
H974        H  0.93865878  0.88990338  0.44903235     0.13100
H975        H  0.90267869  0.93953571  0.46294469     0.13100
H976        H  0.08043024  0.96717121  0.50358905     0.13100
H977        H  0.04055247  0.01245724  0.51833443     0.13100
H978        H  0.03512917  0.96171718  0.45879699     0.26400
H979        H  0.00196986  0.00038696  0.47958656     0.26400
N980        N  0.93305263  0.05528413  0.54271800    -0.36400
N981        N  0.94377592  0.98712907  0.55634523    -0.57000
N982        N  0.01045771  0.99525993  0.56600404    -0.36400
N983        N  0.00144902  0.06245746  0.55492560    -0.57000
C984        C  0.90328835  0.04630369  0.55060637     0.27200
C985        C  0.93454382  0.08708677  0.54777212     0.27200
C986        C  0.00599385  0.96607461  0.57826576     0.27200
C987        C  0.03661113  0.00758143  0.58009543     0.27200
C988        C  0.91252004  0.98808434  0.54996921     0.35800
C989        C  0.95224778  0.95622310  0.55697706     0.35800
C990        C  0.99308686  0.09181476  0.54533608     0.35800
C991        C  0.03320037  0.06237990  0.55874915     0.35800
C992        C  0.88484668  0.07292896  0.55733367    -0.21700
C993        C  0.90466503  0.09871617  0.55572350    -0.21700
C994        C  0.02990075  0.95947705  0.59987217    -0.21700
C995        C  0.04894914  0.98569006  0.60128021    -0.21700
C996        C  0.90095964  0.95737474  0.54660687    -0.22700
C997        C  0.92625494  0.93717561  0.55056527    -0.22700
C998        C  0.01997747  0.11060781  0.54317239    -0.22700
C999        C  0.04544088  0.09190339  0.55143202    -0.22700
C1000       C  0.89376167  0.01486410  0.55734775    -0.18100
C1001       C  0.96286118  0.10458553  0.55204926    -0.18100
C1002       C  0.04993744  0.03789256  0.57417750    -0.18100
C1003       C  0.98032442  0.94558890  0.57145181    -0.18100
H1004       H  0.86040082  0.07335734  0.56537840     0.14800
H1005       H  0.89847983  0.12288442  0.56241129     0.14800
H1006       H  0.03297426  0.93829707  0.61392237     0.14800
H1007       H  0.06932563  0.98824212  0.61668223     0.14800
H1008       H  0.87658099  0.95006270  0.54360166     0.13100
H1009       H  0.92511203  0.91149601  0.55153740     0.13100
H1010       H  0.02063544  0.13597976  0.53921553     0.13100
H1011       H  0.06975124  0.09974117  0.55407319     0.13100
H1012       H  0.95204967  0.04022341  0.53790349     0.26400
H1013       H  0.99669759  0.00583498  0.54855363     0.26400
C1014       C  0.29069335  0.03026590  0.81323669     0.80400
N1015       N  0.27336756  0.00470118  0.80285181    -0.77900
C1016       C  0.28348872  0.97471093  0.80986731     0.82900
N1017       N  0.31088976  0.97060463  0.82605734    -0.77800
C1018       C  0.32852765  0.99570115  0.83523826     0.83000
N1019       N  0.31825970  0.02548745  0.82916856    -0.79500
C1020       C  0.17698308  0.99895843  0.69744509     0.80400
N1021       N  0.15530650  0.00448096  0.67417051    -0.77900
C1022       C  0.14430759  0.03427602  0.66878814     0.82900
N1023       N  0.15504642  0.05876355  0.68666732    -0.77800
C1024       C  0.17672657  0.05398332  0.70982334     0.83000
N1025       N  0.18813691  0.02403584  0.71520228    -0.79500
O1026       O  0.19645349  0.24323588  0.35151813    -0.88000
C1027       C  0.29129361  0.15028061  0.23384105     1.12100
O1028       O  0.21882528  0.24915660  0.28205345    -1.35800
O1029       O  0.32319929  0.20307162  0.30498050    -0.89400
O1030       O  0.19504339  0.29275654  0.33283618    -0.90100
O1031       O  0.25662087  0.31948953  0.29156560    -0.78900
O1032       O  0.25791249  0.21827278  0.32850032    -1.01000
C1033       C  0.33138541  0.27780178  0.24736132     1.22100
O1034       O  0.24676335  0.27531430  0.22966994    -1.35900
Mn1035     Mn  0.22666755  0.22830388  0.23540781     1.82100
O1036       O  0.31417876  0.28615914  0.27094264    -0.78000
O1037       O  0.34255717  0.20611211  0.25555094    -0.87400
C1038       C  0.25988208  0.22117584  0.17172259     1.13200
C1039       C  0.34636908  0.20415498  0.28559283     1.07900
O1040       O  0.17838898  0.23447791  0.21885517    -0.78900
O1041       O  0.27280662  0.22365485  0.25757863    -1.32600
O1042       O  0.17594450  0.28017876  0.24016906    -0.98200
C1043       C  0.27050890  0.34900947  0.20563481     1.06600
Mn1044     Mn  0.30811081  0.21884379  0.22200950     1.48600
O1045       O  0.24111542  0.34373019  0.21003743    -0.87400
Mn1046     Mn  0.18369973  0.28482170  0.28553600     1.49600
O1047       O  0.16745815  0.20328096  0.30044516    -0.91200
C1048       C  0.27023682  0.24073246  0.34304815     1.19800
C1049       C  0.14446543  0.22256505  0.29776974     1.11900
Mn1050     Mn  0.26544712  0.27057287  0.27724115     1.81000
O1051       O  0.28095416  0.23444540  0.18697374    -0.96400
Mn1052     Mn  0.21322545  0.21255958  0.31600097     1.49300
C1053       C  0.19653725  0.27313559  0.35556360     1.08400
Mn1054     Mn  0.28438818  0.27971341  0.19581769     1.49900
C1055       C  0.22385157  0.29100215  0.15460998     1.11300
O1056       O  0.21168466  0.31894988  0.26927688    -1.02200
O1057       O  0.29465823  0.17247757  0.21412933    -0.91900
C1058       C  0.23205077  0.33452852  0.28296828     1.22600
O1059       O  0.31782400  0.26416192  0.22533668    -1.02600
O1060       O  0.29214287  0.15470946  0.26377339    -0.90000
O1061       O  0.25368567  0.29144352  0.15872361    -0.89600
O1062       O  0.14817937  0.25257118  0.29764221    -0.89600
Mn1063     Mn  0.27662439  0.19007931  0.29479124     1.47900
O1064       O  0.23560270  0.21276794  0.18722589    -0.78100
C1065       C  0.16178608  0.25842023  0.22688532     1.15700
O1066       O  0.27877596  0.26431703  0.32653118    -0.76800
O1067       O  0.21212072  0.17943681  0.24192834    -0.76400
Mn1068     Mn  0.20966313  0.30844069  0.22391936     1.51100
O1069       O  0.29153714  0.32739414  0.20621042    -0.88800
O1070       O  0.23195302  0.17899491  0.28826083    -0.96300
O1071       O  0.20382900  0.29402912  0.17713276    -0.91300
C1072       C  0.21970741  0.16370025  0.26625680     1.13400
C1073       C  0.07404944  0.06271167  0.62092548    -0.12100
C1074       C  0.07894426  0.04610400  0.59226009     0.05000
C1075       C  0.10789000  0.02975260  0.58723413    -0.07300
C1076       C  0.12930414  0.02682793  0.61239459    -0.08100
C1077       C  0.12256678  0.04042826  0.64226923    -0.02600
C1078       C  0.09537272  0.05977533  0.64604578     0.04200
N1079       N  0.08704739  0.07367404  0.67610960     0.66700
H1080       H  0.05175738  0.07505810  0.62512261     0.15600
H1081       H  0.15077758  0.01293833  0.60887668     0.15300
N1082       N  0.11466717  0.01364110  0.55786921     0.74400
O1083       O  0.08801342  0.10350194  0.67918107    -0.39100
O1084       O  0.06992926  0.05800619  0.69495780    -0.39000
O1085       O  0.13275625  0.02691413  0.53807094    -0.39700
O1086       O  0.11139826  0.98384770  0.55640894    -0.39800
C1087       C  0.96974887  0.10775593  0.60983685    -0.12100
C1088       C  0.96304299  0.12413818  0.58166400     0.05000
C1089       C  0.95746511  0.15716164  0.58301585    -0.07300
C1090       C  0.95880673  0.17303191  0.61254347    -0.08100
C1091       C  0.96647801  0.15643495  0.64027677    -0.02600
C1092       C  0.97214281  0.12362561  0.63882045     0.04200
N1093       N  0.98042011  0.10601276  0.66647508     0.66700
H1094       H  0.97372767  0.08227656  0.60919785     0.15600
H1095       H  0.95446764  0.19843887  0.61378103     0.15300
N1096       N  0.95097842  0.17490153  0.55499559     0.74400
O1097       O  0.95965871  0.08884750  0.67943839    -0.39100
O1098       O  0.00935363  0.10063992  0.67199993    -0.39000
O1099       O  0.92315798  0.18505392  0.55046818    -0.39700
O1100       O  0.97376586  0.18785392  0.54056846    -0.39800
C1101       C  0.07370755  0.16741063  0.30078518    -0.12100
C1102       C  0.05017719  0.18915562  0.31009633     0.05000
C1103       C  0.05599888  0.22189366  0.30808410    -0.07300
C1104       C  0.08662012  0.23225702  0.30131072    -0.08100
C1105       C  0.11164082  0.21038244  0.29675448    -0.02600
C1106       C  0.10442229  0.17762316  0.29409965     0.04200
N1107       N  0.12787223  0.15415988  0.28623204     0.66700
H1108       H  0.06898071  0.14209205  0.30163319     0.15600
H1109       H  0.09111389  0.25760578  0.30223680     0.15300
N1110       N  0.03238046  0.24483005  0.31687373     0.74400
O1111       O  0.14319443  0.14125335  0.30840175    -0.39100
O1112       O  0.12576570  0.13970880  0.25983379    -0.39000
O1113       O  0.03319017  0.25737853  0.34432075    -0.39700
O1114       O  0.01675815  0.25827460  0.29525562    -0.39800
C1115       C  0.02406863  0.09510566  0.39004697    -0.12100
C1116       C  0.01994425  0.12660660  0.40003385     0.05000
C1117       C  0.02686988  0.13554548  0.43167010    -0.07300
C1118       C  0.03641132  0.11240811  0.45323415    -0.08100
C1119       C  0.03725704  0.08033315  0.44403583    -0.02600
C1120       C  0.03208807  0.07177572  0.41179116     0.04200
N1121       N  0.03236918  0.03937435  0.40116149     0.66700
H1122       H  0.01953976  0.08833097  0.36546468     0.15600
H1123       H  0.03955133  0.11900448  0.47804802     0.15300
N1124       N  0.02178808  0.16726434  0.44301631     0.74400
O1125       O  0.00654704  0.02432460  0.39991116    -0.39100
O1126       O  0.05544690  0.02966936  0.38445656    -0.39000
O1127       O  0.99598023  0.17381198  0.45701092    -0.39700
O1128       O  0.04550870  0.18494025  0.44770777    -0.39800
C1129       C  0.07240188  0.24101090  0.20837024    -0.12100
C1130       C  0.05722301  0.26850065  0.22109195     0.05000
C1131       C  0.07714272  0.29166614  0.23559591    -0.07300
C1132       C  0.11028359  0.28750584  0.23683553    -0.08100
C1133       C  0.12575091  0.26072243  0.22355307    -0.02600
C1134       C  0.10615888  0.23712155  0.20938742     0.04200
N1135       N  0.12028619  0.20954188  0.19510086     0.66700
H1136       H  0.05821972  0.22313946  0.19631475     0.15600
H1137       H  0.12410178  0.30600433  0.24838528     0.15300
N1138       N  0.06425131  0.32028610  0.24909611     0.74400
O1139       O  0.12686384  0.18609893  0.21232212    -0.39100
O1140       O  0.13303822  0.21161499  0.16796759    -0.39000
O1141       O  0.06161966  0.32260529  0.27898614    -0.39700
O1142       O  0.06518457  0.34537561  0.23293932    -0.39800
C1143       C  0.09631004  0.63523855  0.97698571    -0.12100
C1144       C  0.12941530  0.63489432  0.97620921     0.05000
C1145       C  0.14581344  0.60580877  0.97232057    -0.07300
C1146       C  0.12874115  0.57737494  0.97039812    -0.08100
C1147       C  0.09561826  0.57750976  0.97291672    -0.02600
C1148       C  0.07925501  0.60686016  0.97559170     0.04200
N1149       N  0.04553792  0.60819114  0.97919389     0.66700
H1150       H  0.08366768  0.65758918  0.97987533     0.15600
H1151       H  0.14148217  0.55495344  0.96933224     0.15300
N1152       N  0.17970530  0.60443209  0.97261000     0.74400
O1153       O  0.03381808  0.60909272  0.00687350    -0.39100
O1154       O  0.02895646  0.61762508  0.95617597    -0.39000
O1155       O  0.19357024  0.59688299  0.99802758    -0.39700
O1156       O  0.19437715  0.60118160  0.94654589    -0.39800
C1157       C  0.00794287  0.41592313  0.92331125    -0.12100
C1158       C  0.98181761  0.41418599  0.94425854     0.05000
C1159       C  0.95826699  0.39104306  0.93805838    -0.07300
C1160       C  0.96188865  0.37014345  0.91256971    -0.08100
C1161       C  0.98884945  0.37028029  0.89304181    -0.02600
C1162       C  0.01190161  0.39406903  0.89813357     0.04200
N1163       N  0.03968724  0.39629426  0.87875723     0.66700
H1164       H  0.02683101  0.43271385  0.92790384     0.15600
H1165       H  0.94391300  0.35208484  0.90958406     0.15300
N1166       N  0.93249999  0.38504374  0.95928937     0.74400
O1167       O  0.03996174  0.41615181  0.85647352    -0.39100
O1168       O  0.06579872  0.38698425  0.89000955    -0.39000
O1169       O  0.90513383  0.39420266  0.95128646    -0.39700
O1170       O  0.93464365  0.36084651  0.97658169    -0.39800
C1171       C  0.97998346  0.37922794  0.13264355    -0.12100
C1172       C  0.97009302  0.40575160  0.15076916     0.05000
C1173       C  0.96504024  0.40222685  0.18382957    -0.07300
C1174       C  0.97075327  0.37251955  0.19795235    -0.08100
C1175       C  0.98126817  0.34634113  0.17955262    -0.02600
C1176       C  0.98534705  0.34981181  0.14660169     0.04200
N1177       N  0.99380662  0.32334643  0.12670081     0.66700
H1178       H  0.98336063  0.38139332  0.10714192     0.15600
H1179       H  0.96706781  0.36988990  0.22334469     0.15300
N1180       N  0.95415934  0.42815330  0.20330926     0.74400
O1181       O  0.97208437  0.30650610  0.11464505    -0.39100
O1182       O  0.02137192  0.32193672  0.11494345    -0.39000
O1183       O  0.92559669  0.42855193  0.21249014    -0.39700
O1184       O  0.97426148  0.44465258  0.21833764    -0.39800
C1185       C  0.96998316  0.87371427  0.35832328    -0.12100
C1186       C  0.98397686  0.84369492  0.35905409     0.05000
C1187       C  0.99891094  0.83301251  0.38692950    -0.07300
C1188       C  0.00161674  0.85349306  0.41305504    -0.08100
C1189       C  0.99151447  0.88500934  0.41072370    -0.02600
C1190       C  0.97412911  0.89480978  0.38369142     0.04200
N1191       N  0.96272023  0.92667262  0.38046437     0.66700
H1192       H  0.95836266  0.88184212  0.33687803     0.15600
H1193       H  0.01425831  0.84575126  0.43404343     0.15300
N1194       N  0.01308042  0.80219341  0.38838087     0.74400
O1195       O  0.97981518  0.94666187  0.36628685    -0.39100
O1196       O  0.93329069  0.93188713  0.38297845    -0.39000
O1197       O  0.04277914  0.79953877  0.38523013    -0.39700
O1198       O  0.99767513  0.77983540  0.40082153    -0.39800
C1199       C  0.02721779  0.60248881  0.14735606    -0.12100
C1200       C  0.01776205  0.63201823  0.13500600     0.05000
C1201       C  0.00821596  0.63385248  0.10302102    -0.07300
C1202       C  0.00773728  0.60646172  0.08409738    -0.08100
C1203       C  0.01650058  0.57692375  0.09639288    -0.02600
C1204       C  0.02654102  0.57486930  0.12814303     0.04200
N1205       N  0.03445550  0.54475772  0.14129931     0.66700
H1206       H  0.03415973  0.60077567  0.17211065     0.15600
H1207       H  0.00007366  0.60814789  0.05956554     0.15300
N1208       N  0.99896380  0.66332356  0.08925526     0.74400
O1209       O  0.06161468  0.53296250  0.13628042    -0.39100
O1210       O  0.01248064  0.52722919  0.15144490    -0.39000
O1211       O  0.01817068  0.67719233  0.07098417    -0.39700
O1212       O  0.96980228  0.66996350  0.08755356    -0.39800
C1213       C  0.20078771  0.07311846  0.25054251    -0.12100
C1214       C  0.20969937  0.05933294  0.27962042     0.05000
C1215       C  0.22211397  0.08032713  0.30324098    -0.07300
C1216       C  0.22488831  0.11327053  0.29781983    -0.08100
C1217       C  0.21532824  0.12755723  0.26921325    -0.02600
C1218       C  0.20330225  0.10650590  0.24513661     0.04200
N1219       N  0.19295618  0.11815303  0.21511137     0.66700
H1220       H  0.19034841  0.05809071  0.23225636     0.15600
H1221       H  0.23455354  0.12792876  0.31683132     0.15300
N1222       N  0.23213851  0.06875487  0.33344927     0.74400
O1223       O  0.21181565  0.11631290  0.19181369    -0.39100
O1224       O  0.16357292  0.11936312  0.20955257    -0.39000
O1225       O  0.26150826  0.06624190  0.33874321    -0.39700
O1226       O  0.21333893  0.07103345  0.35683546    -0.39800
C1227       C  0.10133873  0.97558478  0.37998154    -0.12100
C1228       C  0.11505379  0.98247537  0.40976624     0.05000
C1229       C  0.14493248  0.99778421  0.41048693    -0.07300
C1230       C  0.16112775  0.00348216  0.38181390    -0.08100
C1231       C  0.14829335  0.99370463  0.35248611    -0.02600
C1232       C  0.11792995  0.98004587  0.35172937     0.04200
N1233       N  0.10366227  0.96989808  0.32254633     0.66700
H1234       H  0.07764219  0.96572879  0.37847307     0.15600
H1235       H  0.18449858  0.01418030  0.38258353     0.15300
N1236       N  0.15982878  0.00645368  0.43986673     0.74400
O1237       O  0.10583366  0.94098219  0.31441914    -0.39100
O1238       O  0.08175124  0.98658501  0.31088366    -0.39000
O1239       O  0.18245415  0.98962785  0.44989138    -0.39700
O1240       O  0.15692655  0.03462718  0.45019361    -0.39800
C1241       C  0.28872311  0.09318230  0.24489705    -0.12100
C1242       C  0.28785743  0.11751816  0.22224120     0.05000
C1243       C  0.28583613  0.10948023  0.18950121    -0.07300
C1244       C  0.28908283  0.07784422  0.18028219    -0.08100
C1245       C  0.29586873  0.05471589  0.20290505    -0.02600
C1246       C  0.29341273  0.06185772  0.23551702     0.04200
N1247       N  0.30109808  0.03908432  0.25929214     0.66700
H1248       H  0.28914211  0.09856983  0.27019870     0.15600
H1249       H  0.29050923  0.07198384  0.15507902     0.15300
N1250       N  0.28371386  0.13289290  0.16513571     0.74400
O1251       O  0.32967814  0.03593997  0.26765616    -0.39100
O1252       O  0.27945744  0.02972771  0.27773005    -0.39000
O1253       O  0.30894997  0.14283214  0.15245243    -0.39700
O1254       O  0.25789307  0.13619053  0.15038199    -0.39800
C1255       C  0.88185959  0.35196193  0.02422248    -0.12100
C1256       C  0.85288923  0.35316084  0.00831318     0.05000
C1257       C  0.83887614  0.38290542  0.00194596    -0.07300
C1258       C  0.85314440  0.41081364  0.01346373    -0.08100
C1259       C  0.88150668  0.40949894  0.03075045    -0.02600
C1260       C  0.89649404  0.37958624  0.03519559     0.04200
N1261       N  0.92567372  0.37644132  0.05234339     0.66700
H1262       H  0.89249672  0.32913823  0.02960814     0.15600
H1263       H  0.84162050  0.43349050  0.00960212     0.15300
N1264       N  0.80907225  0.38511987  0.98602123     0.74400
O1265       O  0.92499492  0.36425213  0.07964482    -0.39100
O1266       O  0.95166791  0.37683439  0.03734167    -0.39000
O1267       O  0.78414888  0.38901525  0.00237246    -0.39700
O1268       O  0.80873348  0.39203546  0.95686090    -0.39800
C1269       C  0.56007566  0.13060353  0.03613355    -0.12100
C1270       C  0.56791807  0.09850036  0.04053316     0.05000
C1271       C  0.60018995  0.09011261  0.04593177    -0.07300
C1272       C  0.62341703  0.11346447  0.04572336    -0.08100
C1273       C  0.61583878  0.14486028  0.03898009    -0.02600
C1274       C  0.58394673  0.15364403  0.03391770     0.04200
N1275       N  0.57550919  0.18532228  0.02538098     0.66700
H1276       H  0.53551649  0.13753092  0.03286548     0.15600
H1277       H  0.64798746  0.10665414  0.04939688     0.15300
N1278       N  0.61030618  0.05801597  0.05102262     0.74400
O1279       O  0.57087066  0.19146408  0.99641132    -0.39100
O1280       O  0.56440775  0.20391130  0.04646919    -0.39000
O1281       O  0.62481191  0.04361370  0.02883921    -0.39700
O1282       O  0.61564952  0.04946592  0.07919591    -0.39800
C1283       C  0.41243569  0.00340803  0.86521810    -0.12100
C1284       C  0.40893349  0.98965035  0.89508061     0.05000
C1285       C  0.38096883  0.97280489  0.90253567    -0.07300
C1286       C  0.35573028  0.97288862  0.88120471    -0.08100
C1287       C  0.35769019  0.99045798  0.85319811    -0.02600
C1288       C  0.38669472  0.00459953  0.84446925     0.04200
N1289       N  0.38981747  0.02214245  0.81578499     0.66700
H1290       H  0.43381724  0.01654339  0.85966757     0.15600
H1291       H  0.33346704  0.96199047  0.88806771     0.15300
N1292       N  0.37555845  0.96137494  0.93399399     0.74400
O1293       O  0.38709264  0.05201730  0.81708248    -0.39100
O1294       O  0.40426694  0.00949964  0.79248269    -0.39000
O1295       O  0.36473648  0.98010265  0.95508000    -0.39700
O1296       O  0.38422178  0.93371748  0.94146418    -0.39800
C1297       C  0.37230016  0.89829171  0.02422987    -0.12100
C1298       C  0.37789294  0.86705655  0.01439995     0.05000
C1299       C  0.40885994  0.85784629  0.00485955    -0.07300
C1300       C  0.43324379  0.88061368  0.00418362    -0.08100
C1301       C  0.42717226  0.91237313  0.01280802    -0.02600
C1302       C  0.39629441  0.92090453  0.02361505     0.04200
N1303       N  0.38860740  0.95237224  0.03441259     0.66700
H1304       H  0.34870118  0.90547659  0.03191867     0.15600
H1305       H  0.45691265  0.87350613  0.99678396     0.15300
N1306       N  0.41635039  0.82558666  0.99687465     0.74400
O1307       O  0.38952626  0.95815993  0.06393580    -0.39100
O1308       O  0.37080972  0.96927311  0.01743921    -0.39000
O1309       O  0.43042450  0.80889770  0.01726991    -0.39700
O1310       O  0.41815979  0.81750706  0.96788078    -0.39800
C1311       C  0.41716151  0.02234353  0.15439311    -0.12100
C1312       C  0.38606175  0.01857893  0.14302863     0.05000
C1313       C  0.37906597  0.02398158  0.11089432    -0.07300
C1314       C  0.40364891  0.03019078  0.08994899    -0.08100
C1315       C  0.43500953  0.03252715  0.10076199    -0.02600
C1316       C  0.44166924  0.03012572  0.13329579     0.04200
N1317       N  0.47342754  0.03342726  0.14445563     0.66700
H1318       H  0.42229776  0.01919565  0.17943302     0.15600
H1319       H  0.39853861  0.03147055  0.06471484     0.15300
N1320       N  0.34723907  0.02254064  0.09911017     0.74400
O1321       O  0.48568030  0.06074138  0.14605688    -0.39100
O1322       O  0.49114765  0.00926786  0.14505131    -0.39000
O1323       O  0.32943487  0.04653956  0.10237710    -0.39700
O1324       O  0.33965492  0.00098806  0.07941528    -0.39800
C1325       C  0.86095138  0.01090213  0.41659226    -0.12100
C1326       C  0.87232095  0.01185281  0.38514758     0.05000
C1327       C  0.90507060  0.00991471  0.37925656    -0.07300
C1328       C  0.92590183  0.00518635  0.40457373    -0.08100
C1329       C  0.91463550  0.00336308  0.43606373    -0.02600
C1330       C  0.88207332  0.00728776  0.44210854     0.04200
N1331       N  0.87037653  0.00819737  0.47396705     0.66700
H1332       H  0.83566922  0.01241122  0.42123576     0.15600
H1333       H  0.95095929  0.00238943  0.39965625     0.15300
N1334       N  0.91723936  0.01216935  0.34752361     0.74400
O1335       O  0.86946659  0.03433277  0.48898248    -0.39100
O1336       O  0.86471356  0.98267416  0.48832501    -0.39000
O1337       O  0.91943897  0.03912286  0.33483084    -0.39700
O1338       O  0.91951269  0.98744638  0.33031871    -0.39800
C1339       C  0.60653029  0.96288913  0.15966580    -0.12100
C1340       C  0.63470534  0.96550628  0.14200731     0.05000
C1341       C  0.63354129  0.96605733  0.10864655    -0.07300
C1342       C  0.60416288  0.96674163  0.09360596    -0.08100
C1343       C  0.57576868  0.96641844  0.11118455    -0.02600
C1344       C  0.57697600  0.96312706  0.14445205     0.04200
N1345       N  0.54873204  0.96169938  0.16320154     0.66700
H1346       H  0.60746170  0.96206227  0.18544595     0.15600
H1347       H  0.60337257  0.96972986  0.06810716     0.15300
N1348       N  0.66179843  0.96767804  0.08982124     0.74400
O1349       O  0.54067343  0.98578677  0.17953196    -0.39100
O1350       O  0.53805775  0.93482102  0.17078208    -0.39000
O1351       O  0.67196096  0.94276443  0.07612222    -0.39700
O1352       O  0.67133684  0.99438875  0.08041112    -0.39800
C1353       C  0.21527037  0.29265509  0.06518942    -0.12100
C1354       C  0.18305146  0.28515924  0.06259557     0.05000
C1355       C  0.16702226  0.27221826  0.08881213    -0.07300
C1356       C  0.18178741  0.27229101  0.11841183    -0.08100
C1357       C  0.21180578  0.28617608  0.12223357    -0.02600
C1358       C  0.22915019  0.29552620  0.09508695     0.04200
N1359       N  0.25765961  0.31373243  0.09768978     0.66700
H1360       H  0.22762208  0.30301459  0.04513512     0.15600
H1361       H  0.16875899  0.26361326  0.13883231     0.15300
N1362       N  0.13478883  0.26197777  0.08647112     0.74400
O1363       O  0.28353380  0.30143386  0.08863137    -0.39100
O1364       O  0.25545612  0.34365847  0.09921684    -0.39000
O1365       O  0.12904250  0.23258347  0.08490569    -0.39700
O1366       O  0.11293643  0.28064042  0.09527834    -0.39800
C1367       C  0.09121546  0.40817417  0.08933083    -0.12100
C1368       C  0.08784542  0.43464985  0.06975854     0.05000
C1369       C  0.11181716  0.44028876  0.04681948    -0.07300
C1370       C  0.13250848  0.41556357  0.03803693    -0.08100
C1371       C  0.13087297  0.38610877  0.05319069    -0.02600
C1372       C  0.11282857  0.38412909  0.08164177     0.04200
N1373       N  0.11303380  0.35664454  0.10116662     0.66700
H1374       H  0.07395621  0.40353192  0.10787283     0.15600
H1375       H  0.14818355  0.41873451  0.01781134     0.15300
N1376       N  0.11268127  0.46902769  0.02916484     0.74400
O1377       O  0.13086487  0.35655875  0.12527057    -0.39100
O1378       O  0.08889680  0.33897428  0.10093465    -0.39000
O1379       O  0.13015184  0.49127400  0.03923696    -0.39700
O1380       O  0.10602629  0.46788296  0.99992033    -0.39800
C1381       C  0.23713676  0.20576248  0.11696203    -0.12100
C1382       C  0.26229084  0.21813438  0.13554560     0.05000
C1383       C  0.28918275  0.22923206  0.11860026    -0.07300
C1384       C  0.29074476  0.22748803  0.08528912    -0.08100
C1385       C  0.26658508  0.21413802  0.06674572    -0.02600
C1386       C  0.23917483  0.20336091  0.08309124     0.04200
N1387       N  0.21367289  0.18884839  0.06614306     0.66700
H1388       H  0.21587470  0.19741199  0.12874289     0.15600
H1389       H  0.31229531  0.23553348  0.07371100     0.15300
N1390       N  0.31624909  0.24160709  0.13450826     0.74400
O1391       O  0.21110602  0.15897304  0.06639193    -0.39100
O1392       O  0.18962203  0.20543965  0.05965403    -0.39000
O1393       O  0.34147883  0.22539120  0.13349237    -0.39700
O1394       O  0.31804345  0.27131515  0.13849323    -0.39800
C1395       C  0.34893341  0.13928123  0.02263961    -0.12100
C1396       C  0.34677934  0.16337367  0.99997482     0.05000
C1397       C  0.37133743  0.16576870  0.97694680    -0.07300
C1398       C  0.39668520  0.14395742  0.97687321    -0.08100
C1399       C  0.39752544  0.11886402  0.99849470    -0.02600
C1400       C  0.37333934  0.11687176  0.02169747     0.04200
N1401       N  0.37148764  0.09073303  0.04292091     0.66700
H1402       H  0.33039623  0.13647456  0.04034860     0.15600
H1403       H  0.41488265  0.14551357  0.95864772     0.15300
N1404       N  0.37089840  0.18941576  0.95295096     0.74400
O1405       O  0.37885133  0.09525391  0.07172442    -0.39100
O1406       O  0.35349868  0.06780217  0.03574686    -0.39000
O1407       O  0.39003946  0.21236619  0.95527450    -0.39700
O1408       O  0.36030845  0.18185591  0.92581363    -0.39800
C1409       C  0.86221434  0.01864940  0.64186122    -0.12100
C1410       C  0.83477213  0.00040954  0.63964669     0.05000
C1411       C  0.82578795  0.98717370  0.60997195    -0.07300
C1412       C  0.84411395  0.99344803  0.58277969    -0.08100
C1413       C  0.87223728  0.01112642  0.58523414    -0.02600
C1414       C  0.88132669  0.02349255  0.61542519     0.04200
N1415       N  0.91013532  0.04084444  0.61995555     0.66700
H1416       H  0.86940629  0.02861880  0.66467868     0.15600
H1417       H  0.83663571  0.98406656  0.55988163     0.15300
N1418       N  0.79849292  0.96730599  0.60698001     0.74400
O1419       O  0.93515536  0.02588170  0.62670008    -0.39100
O1420       O  0.90848087  0.07014583  0.62659365    -0.39000
O1421       O  0.77359189  0.97850749  0.59476435    -0.39700
O1422       O  0.80213421  0.93752971  0.60775217    -0.39800
C1423       C  0.55791492  0.02373899  0.88292916    -0.12100
C1424       C  0.56357047  0.02526440  0.91567352     0.05000
C1425       C  0.59498992  0.02922454  0.92667476    -0.07300
C1426       C  0.62033213  0.02859854  0.90521613    -0.08100
C1427       C  0.61493424  0.02419652  0.87265875    -0.02600
C1428       C  0.58337657  0.02315008  0.86131654     0.04200
N1429       N  0.57661876  0.02066535  0.82813334     0.66700
H1430       H  0.53385713  0.02095459  0.87428233     0.15600
H1431       H  0.64439995  0.03044377  0.91413107     0.15300
N1432       N  0.60144473  0.03351821  0.95977008     0.74400
O1433       O  0.56981088  0.99372930  0.81653385    -0.39100
O1434       O  0.56755608  0.04525254  0.81378996    -0.39000
O1435       O  0.59880497  0.01042892  0.97846872    -0.39700
O1436       O  0.60382907  0.06138834  0.97092803    -0.39800
C1437       C  0.97066267  0.89571163  0.64375714    -0.12100
C1438       C  0.98904519  0.86903099  0.63584294     0.05000
C1439       C  0.00051704  0.86497762  0.60450554    -0.07300
C1440       C  0.99543482  0.88904272  0.58215629    -0.08100
C1441       C  0.97842715  0.91657409  0.59089021    -0.02600
C1442       C  0.96535459  0.91941463  0.62171225     0.04200
N1443       N  0.95054752  0.94831326  0.63222911     0.66700
H1444       H  0.96172424  0.89900573  0.66783033     0.15600
H1445       H  0.00580412  0.88693651  0.55856956     0.15300
N1446       N  0.01734235  0.83681945  0.59527693     0.74400
O1447       O  0.92153928  0.95322663  0.62669502    -0.39100
O1448       O  0.96700539  0.96972161  0.64544521    -0.39000
O1449       O  0.00266322  0.81092958  0.59152450    -0.39700
O1450       O  0.04714178  0.83739573  0.59262848    -0.39800
C1451       C  0.00548097  0.60510328  0.85450740    -0.12100
C1452       C  0.98546302  0.62927172  0.86649254     0.05000
C1453       C  0.96820449  0.62408527  0.89452186    -0.07300
C1454       C  0.97150073  0.59548358  0.91040721    -0.08100
C1455       C  0.99023559  0.57043497  0.89796745    -0.02600
C1456       C  0.00778127  0.57565631  0.86974303     0.04200
N1457       N  0.02769211  0.55150241  0.85602019     0.66700
H1458       H  0.01909232  0.60898108  0.83295004     0.15600
H1459       H  0.95924340  0.59312301  0.93297318     0.15300
N1460       N  0.94823916  0.64812925  0.90812477     0.74400
O1461       O  0.01660429  0.53370646  0.83436173    -0.39100
O1462       O  0.05741995  0.55402280  0.85870174    -0.39000
O1463       O  0.91852588  0.64524834  0.90573378    -0.39700
O1464       O  0.95944063  0.66638153  0.92932180    -0.39800
C1465       C  0.62385106  0.88206065  0.98784427    -0.12100
C1466       C  0.61740113  0.84969905  0.98896432     0.05000
C1467       C  0.58568101  0.83905719  0.99004850    -0.07300
C1468       C  0.56083957  0.86133284  0.99086523    -0.08100
C1469       C  0.56751327  0.89392234  0.99109677    -0.02600
C1470       C  0.59941168  0.90418513  0.98900257     0.04200
N1471       N  0.60761022  0.93708463  0.98847578     0.66700
H1472       H  0.64822450  0.89031057  0.98700955     0.15600
H1473       H  0.53645546  0.85327850  0.99214727     0.15300
N1474       N  0.57829577  0.80598696  0.99062585     0.74400
O1475       O  0.61640122  0.95037367  0.01402901    -0.39100
O1476       O  0.61611274  0.94890472  0.96233549    -0.39000
O1477       O  0.56971727  0.79378568  0.01656217    -0.39700
O1478       O  0.57174953  0.79187019  0.96478512    -0.39800
C1479       C  0.91107123  0.59534686  0.00920415    -0.12100
C1480       C  0.89957572  0.56417698  0.01094082     0.05000
C1481       C  0.86662677  0.55907197  0.01439163    -0.07300
C1482       C  0.84593036  0.58542519  0.01559378    -0.08100
C1483       C  0.85784157  0.61651635  0.01344978    -0.02600
C1484       C  0.89063561  0.62130705  0.01046666     0.04200
N1485       N  0.90362637  0.65253941  0.00867161     0.66700
H1486       H  0.93634730  0.59952090  0.00654241     0.15600
H1487       H  0.82060980  0.58164847  0.01809674     0.15300
N1488       N  0.85386135  0.52774433  0.01666691     0.74400
O1489       O  0.91396244  0.66575829  0.03369188    -0.39100
O1490       O  0.91187892  0.66310061  0.98191470    -0.39000
O1491       O  0.84596818  0.51752155  0.04368619    -0.39700
O1492       O  0.84234971  0.51469576  0.99208317    -0.39800
C1493       C  0.88553876  0.40634198  0.52427686    -0.12100
C1494       C  0.91512234  0.39113912  0.52647937     0.05000
C1495       C  0.91626747  0.35808927  0.53194114    -0.07300
C1496       C  0.88770609  0.34098192  0.53438027    -0.08100
C1497       C  0.85832338  0.35640199  0.53080776    -0.02600
C1498       C  0.85740135  0.38927850  0.52595010     0.04200
N1499       N  0.82798808  0.40561135  0.52184013     0.66700
H1500       H  0.88436851  0.43169440  0.51992969     0.15600
H1501       H  0.88846545  0.31551960  0.53801029     0.15300
N1502       N  0.94577826  0.34147238  0.53414991     0.74400
O1503       O  0.81517782  0.41930557  0.54550526    -0.39100
O1504       O  0.81923171  0.41276539  0.49413257    -0.39000
O1505       O  0.95580251  0.33375128  0.56127883    -0.39700
O1506       O  0.95631533  0.32688348  0.50987205    -0.39800
C1507       C  0.89083107  0.47713943  0.35495324    -0.12100
C1508       C  0.86179811  0.47577953  0.37141910     0.05000
C1509       C  0.86152472  0.47583827  0.40476145    -0.07300
C1510       C  0.89005437  0.47712943  0.42125547    -0.08100
C1511       C  0.91938663  0.47730727  0.40512700    -0.02600
C1512       C  0.91975014  0.47752460  0.37152837     0.04200
N1513       N  0.94881784  0.47765170  0.35390037     0.66700
H1514       H  0.89100467  0.47769898  0.32914658     0.15600
H1515       H  0.88940712  0.47724906  0.44709250     0.15300
N1516       N  0.83243736  0.47443336  0.42223701     0.74400
O1517       O  0.96055336  0.45144660  0.34476020    -0.39100
O1518       O  0.95684436  0.50265532  0.33967693    -0.39000
O1519       O  0.82360671  0.44819270  0.43343287    -0.39700
O1520       O  0.81986733  0.49983678  0.43250712    -0.39800
C1521       C  0.19039196  0.28248213  0.44492204    -0.12100
C1522       C  0.20274555  0.31311170  0.44868563     0.05000
C1523       C  0.21626086  0.32876501  0.42268097    -0.07300
C1524       C  0.21502355  0.31463429  0.39263314    -0.08100
C1525       C  0.19952581  0.28549814  0.38809359    -0.02600
C1526       C  0.18791774  0.26876802  0.41468860     0.04200
N1527       N  0.16975460  0.24026205  0.41109792     0.66700
H1528       H  0.17907118  0.27085425  0.46487530     0.15600
H1529       H  0.22500002  0.32719873  0.37256348     0.15300
N1530       N  0.22915984  0.35998830  0.42603679     0.74400
O1531       O  0.18208981  0.21395760  0.41825120    -0.39100
O1532       O  0.13993967  0.24228112  0.40895464    -0.39000
O1533       O  0.25890189  0.36339242  0.42663009    -0.39700
O1534       O  0.21177233  0.38373653  0.42044421    -0.39800
C1535       C  0.09519952  0.36393883  0.47691858    -0.12100
C1536       C  0.12104329  0.38061125  0.49001513     0.05000
C1537       C  0.11831742  0.41306785  0.49697070    -0.07300
C1538       C  0.09020425  0.42864062  0.48990962    -0.08100
C1539       C  0.06339304  0.41191958  0.47903696    -0.02600
C1540       C  0.06598195  0.37920805  0.47224728     0.04200
N1541       N  0.03919905  0.36100213  0.46218371     0.66700
H1542       H  0.09733481  0.33870579  0.47172822     0.15600
H1543       H  0.08829228  0.45375872  0.49513145     0.15300
N1544       N  0.14298353  0.43003400  0.51307917     0.74400
O1545       O  0.02279153  0.34696770  0.48287732    -0.39100
O1546       O  0.03748605  0.35194150  0.43347680    -0.39000
O1547       O  0.16060201  0.44853192  0.49760251    -0.39700
O1548       O  0.14191195  0.43257051  0.54304718    -0.39800
C1549       C  0.29312198  0.25821697  0.43215501    -0.12100
C1550       C  0.27814160  0.23310557  0.44814124     0.05000
C1551       C  0.26027646  0.21151045  0.42939697    -0.07300
C1552       C  0.25800006  0.21488315  0.39599887    -0.08100
C1553       C  0.27351772  0.23949658  0.37945547    -0.02600
C1554       C  0.29113250  0.26156168  0.39845568     0.04200
N1555       N  0.30959071  0.28590584  0.38402915     0.66700
H1556       H  0.30838461  0.27413035  0.44557426     0.15600
H1557       H  0.24424326  0.19745001  0.38282189     0.15300
N1558       N  0.24624473  0.18430131  0.44392297     0.74400
O1559       O  0.29991349  0.31428378  0.38584526    -0.39100
O1560       O  0.33868674  0.28071710  0.37884975    -0.39000
O1561       O  0.22577720  0.18805727  0.46568219    -0.39700
O1562       O  0.25888196  0.15731977  0.43976151    -0.39800
C1563       C  0.08445366  0.66892915  0.49392541    -0.12100
C1564       C  0.10713128  0.66387842  0.51772503     0.05000
C1565       C  0.10088274  0.64118718  0.54131993    -0.07300
C1566       C  0.07561241  0.62024784  0.53718220    -0.08100
C1567       C  0.05607429  0.62167587  0.51012210    -0.02600
C1568       C  0.05853457  0.64848502  0.49039335     0.04200
N1569       N  0.03676598  0.65369719  0.46498609     0.66700
H1570       H  0.08796581  0.68759064  0.47669528     0.15600
H1571       H  0.07343692  0.60092411  0.55376930     0.15300
N1572       N  0.12121808  0.63699299  0.56809819     0.74400
O1573       O  0.01339389  0.67193673  0.46997914    -0.39100
O1574       O  0.04584108  0.64873617  0.43668134    -0.39000
O1575       O  0.11139099  0.64622281  0.59509127    -0.39700
O1576       O  0.14270459  0.61604918  0.56662590    -0.39800
C1577       C  0.62085194  0.09803111  0.49289370    -0.12100
C1578       C  0.61091359  0.12782773  0.50469288     0.05000
C1579       C  0.58016505  0.13116182  0.51722457    -0.07300
C1580       C  0.56035781  0.10488755  0.51924581    -0.08100
C1581       C  0.56989885  0.07503035  0.50761557    -0.02600
C1582       C  0.60035821  0.07169346  0.49378659     0.04200
N1583       N  0.61080468  0.04214824  0.48042965     0.66700
H1584       H  0.64445420  0.09525949  0.48285629     0.15600
H1585       H  0.53645860  0.10823779  0.52841826     0.15300
N1586       N  0.56761604  0.16159788  0.52565116     0.74400
O1587       O  0.60736166  0.03717796  0.45094189    -0.39100
O1588       O  0.63159584  0.02661667  0.49516747    -0.39000
O1589       O  0.55154285  0.17641060  0.50529856    -0.39700
O1590       O  0.56373537  0.16828637  0.55469207    -0.39800
C1591       C  0.33815227  0.09549433  0.52296662    -0.12100
C1592       C  0.36922477  0.09535716  0.51123761     0.05000
C1593       C  0.38167499  0.12338828  0.49777838    -0.07300
C1594       C  0.36281589  0.15091989  0.49631804    -0.08100
C1595       C  0.33203468  0.15148184  0.50929012    -0.02600
C1596       C  0.31964298  0.12326913  0.52238697     0.04200
N1597       N  0.28835249  0.12231523  0.53542462     0.66700
H1598       H  0.32877246  0.07435967  0.53407087     0.15600
H1599       H  0.37284618  0.17243200  0.48656588     0.15300
N1600       N  0.41450241  0.12515344  0.48894332     0.74400
O1601       O  0.26596504  0.11253743  0.51800977    -0.39100
O1602       O  0.28502568  0.12178216  0.56529501    -0.39000
O1603       O  0.42358131  0.11482443  0.46211987    -0.39700
O1604       O  0.43496991  0.13241112  0.50964840    -0.39800
C1605       C  0.36498227  0.92100911  0.48348927    -0.12100
C1606       C  0.39768109  0.91746961  0.48763766     0.05000
C1607       C  0.41091814  0.88664617  0.49045396    -0.07300
C1608       C  0.39131009  0.86013462  0.48961568    -0.08100
C1609       C  0.35877709  0.86362464  0.48540921    -0.02600
C1610       C  0.34537639  0.89419477  0.48241676     0.04200
N1611       N  0.31197373  0.89844525  0.47890491     0.66700
H1612       H  0.35477138  0.94453324  0.48108091     0.15600
H1613       H  0.40161304  0.83661324  0.49194698     0.15300
N1614       N  0.44434975  0.88164250  0.49305108     0.74400
O1615       O  0.29551579  0.90537356  0.50318502    -0.39100
O1616       O  0.30098127  0.90416184  0.45165875    -0.39000
O1617       O  0.45504242  0.87000852  0.51837604    -0.39700
O1618       O  0.46028164  0.87806795  0.46778337    -0.39800
C1619       C  0.52831287  0.87286554  0.38341060    -0.12100
C1620       C  0.51566762  0.87672246  0.35308365     0.05000
C1621       C  0.50717625  0.90737040  0.34275305    -0.07300
C1622       C  0.50979380  0.93334377  0.36387475    -0.08100
C1623       C  0.51945898  0.92871135  0.39543483    -0.02600
C1624       C  0.53034588  0.89833805  0.40456138     0.04200
N1625       N  0.54281271  0.89253626  0.43553745     0.66700
H1626       H  0.53591470  0.84953558  0.39114815     0.15600
H1627       H  0.50154972  0.95655397  0.35656800     0.15300
N1628       N  0.49540185  0.91254492  0.31140888     0.74400
O1629       O  0.57245782  0.88944227  0.43843614    -0.39100
O1630       O  0.52489456  0.88081692  0.45642453    -0.39000
O1631       O  0.46604433  0.91719522  0.30768741    -0.39700
O1632       O  0.51444336  0.92169946  0.29017475    -0.39800
C1633       C  0.65100623  0.90382887  0.51897300    -0.12100
C1634       C  0.63760453  0.87339727  0.51730726     0.05000
C1635       C  0.60495719  0.86993212  0.51217547    -0.07300
C1636       C  0.58600823  0.89681612  0.50936967    -0.08100
C1637       C  0.59893986  0.92749075  0.51162914    -0.02600
C1638       C  0.63186014  0.93100685  0.51641960     0.04200
N1639       N  0.64629591  0.96155443  0.51871673     0.66700
H1640       H  0.67639835  0.90645578  0.52216722     0.15600
H1641       H  0.56063861  0.89381962  0.50643840     0.15300
N1642       N  0.59056583  0.83925457  0.51047897     0.74400
O1643       O  0.64976626  0.97416139  0.54591070    -0.39100
O1644       O  0.66388726  0.97045833  0.49614920    -0.39000
O1645       O  0.57747107  0.82824928  0.53504687    -0.39700
O1646       O  0.58414892  0.82722401  0.48358620    -0.39800
C1647       C  0.87339625  0.61896757  0.45940577    -0.12100
C1648       C  0.87709584  0.64551402  0.47939682     0.05000
C1649       C  0.90608033  0.65009372  0.49557903    -0.07300
C1650       C  0.92969637  0.62666808  0.49352650    -0.08100
C1651       C  0.92360497  0.59771274  0.47778296    -0.02600
C1652       C  0.89592958  0.59470791  0.45898659     0.04200
N1653       N  0.88812666  0.56563754  0.44287296     0.66700
H1654       H  0.85130445  0.61529511  0.44669166     0.15600
H1655       H  0.95093629  0.62921011  0.50784976     0.15300
N1656       N  0.91103420  0.67700782  0.51603678     0.74400
O1657       O  0.87176766  0.54522005  0.45729142    -0.39100
O1658       O  0.88953127  0.56449260  0.41284800    -0.39000
O1659       O  0.90579564  0.67437965  0.54550482    -0.39700
O1660       O  0.92843709  0.69935045  0.50650027    -0.39800
C1661       C  0.47598375  0.91064443  0.65823316    -0.12100
C1662       C  0.47263241  0.87918933  0.64694164     0.05000
C1663       C  0.46881775  0.87316366  0.61421472    -0.07300
C1664       C  0.46947692  0.89833126  0.59321245    -0.08100
C1665       C  0.47401184  0.92950705  0.60400106    -0.02600
C1666       C  0.47651080  0.93591453  0.63668934     0.04200
N1667       N  0.48024386  0.96784241  0.64771569     0.66700
H1668       H  0.47899856  0.91538677  0.68346877     0.15600
H1669       H  0.46876450  0.89346054  0.56801853     0.15300
N1670       N  0.46729549  0.84147739  0.60160204     0.74400
O1671       O  0.45671416  0.98631928  0.64606710    -0.39100
O1672       O  0.50777982  0.97947115  0.64944773    -0.39000
O1673       O  0.44080005  0.83053946  0.59289153    -0.39700
O1674       O  0.49238524  0.82860752  0.59107825    -0.39800
C1675       C  0.11302817  0.51059939  0.60026337    -0.12100
C1676       C  0.10832225  0.49996784  0.63132035     0.05000
C1677       C  0.07739002  0.49242369  0.64162401    -0.07300
C1678       C  0.05168998  0.49546394  0.62073070    -0.08100
C1679       C  0.05648584  0.50549897  0.58945010    -0.02600
C1680       C  0.08763252  0.51298211  0.57914693     0.04200
N1681       N  0.09421550  0.52152631  0.54692787     0.66700
H1682       H  0.13672455  0.51657584  0.59216720     0.15600
H1683       H  0.02801300  0.48927863  0.62867853     0.15300
N1684       N  0.07148247  0.48245836  0.67341940     0.74400
O1685       O  0.10134778  0.54991306  0.54089185    -0.39100
O1686       O  0.10227586  0.50004013  0.52732255    -0.39000
O1687       O  0.06439330  0.50313421  0.69429252    -0.39700
O1688       O  0.06423679  0.45382839  0.67814176    -0.39800
C1689       C  0.63565506  0.48062461  0.09651427    -0.12100
C1690       C  0.60515663  0.49375769  0.09665742     0.05000
C1691       C  0.59409170  0.51065457  0.12384660    -0.07300
C1692       C  0.61313182  0.51296070  0.15072533    -0.08100
C1693       C  0.64243924  0.49745822  0.15162718    -0.02600
C1694       C  0.65405283  0.48155645  0.12413269     0.04200
N1695       N  0.68392782  0.46548699  0.12402375     0.66700
H1696       H  0.64396375  0.46722245  0.07588550     0.15600
H1697       H  0.60412111  0.52535760  0.17169911     0.15300
N1698       N  0.56265842  0.52347903  0.12549089     0.74400
O1699       O  0.68448289  0.43591203  0.12872393    -0.39100
O1700       O  0.70727435  0.47830191  0.11039937    -0.39000
O1701       O  0.54063090  0.50674132  0.13683657    -0.39700
O1702       O  0.55902091  0.55321687  0.12429732    -0.39800
C1703       C  0.49225966  0.57105550  0.10455895    -0.12100
C1704       C  0.50113199  0.58213374  0.07438259     0.05000
C1705       C  0.50660306  0.61492321  0.07042097    -0.07300
C1706       C  0.50381353  0.63566072  0.09682496    -0.08100
C1707       C  0.49411380  0.62431052  0.12661739    -0.02600
C1708       C  0.48790764  0.59182605  0.13023912     0.04200
N1709       N  0.47660176  0.57956570  0.15971720     0.66700
H1710       H  0.48773076  0.54593859  0.10793505     0.15600
H1711       H  0.50825907  0.66082536  0.09386009     0.15300
N1712       N  0.51234977  0.62790412  0.03972104     0.74400
O1713       O  0.44708925  0.57630435  0.16370922    -0.39100
O1714       O  0.49550689  0.56471005  0.17745132    -0.39000
O1715       O  0.48899393  0.63851155  0.02439322    -0.39700
O1716       O  0.53982413  0.63766412  0.03294392    -0.39800
C1717       C  0.48664876  0.60320016  0.90432428    -0.12100
C1718       C  0.50017659  0.61522765  0.93249524     0.05000
C1719       C  0.51500361  0.64530169  0.93195580    -0.07300
C1720       C  0.51713046  0.66176659  0.90309179    -0.08100
C1721       C  0.50347577  0.64928826  0.87517413    -0.02600
C1722       C  0.48758797  0.62003272  0.87610726     0.04200
N1723       N  0.47237939  0.60692093  0.84855358     0.66700
H1724       H  0.47523400  0.58025854  0.90425856     0.15600
H1725       H  0.52826223  0.68496912  0.90276164     0.15300
N1726       N  0.52595694  0.66042712  0.96048087     0.74400
O1727       O  0.48697212  0.58654723  0.83169492    -0.39100
O1728       O  0.44261160  0.60923956  0.84610611    -0.39000
O1729       O  0.55542951  0.66327299  0.96491460    -0.39700
O1730       O  0.50731074  0.67909707  0.97510469    -0.39800
C1731       C  0.36131580  0.54111120  0.92508479    -0.12100
C1732       C  0.39275031  0.53103477  0.92215830     0.05000
C1733       C  0.40544130  0.52364671  0.89165243    -0.07300
C1734       C  0.38597206  0.52482879  0.86500357    -0.08100
C1735       C  0.35411962  0.53332237  0.86812268    -0.02600
C1736       C  0.34186533  0.54239745  0.89822760     0.04200
N1737       N  0.30938384  0.55113499  0.90240630     0.66700
H1738       H  0.35144981  0.54646872  0.94842604     0.15600
H1739       H  0.39550727  0.51797582  0.84188102     0.15300
N1740       N  0.43745717  0.51296794  0.88749105     0.74400
O1741       O  0.28948244  0.52968718  0.90856950    -0.39100
O1742       O  0.30298522  0.57948627  0.91024809    -0.39000
O1743       O  0.44277664  0.48348611  0.88524009    -0.39700
O1744       O  0.45745677  0.53188824  0.87593532    -0.39800
C1745       C  0.46356020  0.35965931  0.90778835    -0.12100
C1746       C  0.47262805  0.37285669  0.87837866     0.05000
C1747       C  0.48564125  0.40357809  0.87789806    -0.07300
C1748       C  0.48793675  0.42111205  0.90604347    -0.08100
C1749       C  0.47782655  0.40876485  0.93512966    -0.02600
C1750       C  0.46642818  0.37749744  0.93629999     0.04200
N1751       N  0.45807137  0.36392510  0.96619575     0.66700
H1752       H  0.45470521  0.33551824  0.90858413     0.15600
H1753       H  0.49661277  0.44519325  0.90513870     0.15300
N1754       N  0.49574850  0.41783643  0.84888033     0.74400
O1755       O  0.43006807  0.36699755  0.97653587    -0.39100
O1756       O  0.47983214  0.35626146  0.98524210    -0.39000
O1757       O  0.47666767  0.43562694  0.83429277    -0.39700
O1758       O  0.52510081  0.42022614  0.84332582    -0.39800
C1759       C  0.47682147  0.10843783  0.67211877    -0.12100
C1760       C  0.49770286  0.13275819  0.66358095     0.05000
C1761       C  0.51606930  0.12933832  0.63581337    -0.07300
C1762       C  0.51099765  0.10345854  0.61546525    -0.08100
C1763       C  0.48799256  0.08034458  0.62235891    -0.02600
C1764       C  0.47190340  0.08219004  0.65198634     0.04200
N1765       N  0.44908183  0.05904412  0.66133825     0.66700
H1766       H  0.46299109  0.11061011  0.69387169     0.15600
H1767       H  0.52324876  0.10303837  0.59271047     0.15300
N1768       N  0.53764842  0.15341392  0.62616388     0.74400
O1769       O  0.45715262  0.03931309  0.68221136    -0.39100
O1770       O  0.41997647  0.06558103  0.65846749    -0.39000
O1771       O  0.56691540  0.14704828  0.62540785    -0.39700
O1772       O  0.52728022  0.17696964  0.61100006    -0.39800
C1773       C  0.58659931  0.49947017  0.87265397    -0.12100
C1774       C  0.61728779  0.48724645  0.87387100     0.05000
C1775       C  0.62919071  0.47546208  0.90284920    -0.07300
C1776       C  0.61107056  0.47865775  0.93074021    -0.08100
C1777       C  0.58093717  0.49256124  0.92980568    -0.02600
C1778       C  0.56807909  0.50169866  0.90005615     0.04200
N1779       N  0.53668193  0.51433592  0.89721955     0.66700
H1780       H  0.57717507  0.50806864  0.85033065     0.15600
H1781       H  0.62099428  0.47132365  0.95327194     0.15300
N1782       N  0.66006404  0.46159610  0.90474173     0.74400
O1783       O  0.53328137  0.54399999  0.89468320    -0.39100
O1784       O  0.51531422  0.49647953  0.88613948    -0.39000
O1785       O  0.68253337  0.47802619  0.91592380    -0.39700
O1786       O  0.66255592  0.43168545  0.90434110    -0.39800
C1787       C  0.88581794  0.52445350  0.65644282    -0.12100
C1788       C  0.85790182  0.50855011  0.64743385     0.05000
C1789       C  0.85769690  0.48947181  0.61974241    -0.07300
C1790       C  0.88482060  0.48695671  0.60115760    -0.08100
C1791       C  0.91263726  0.50320302  0.60940295    -0.02600
C1792       C  0.91338145  0.52180272  0.63763487     0.04200
N1793       N  0.94144257  0.53835902  0.64716107     0.66700
H1794       H  0.88621987  0.53875625  0.67809340     0.15600
H1795       H  0.88365343  0.47339431  0.57903155     0.15300
N1796       N  0.82948634  0.47400956  0.60898950     0.74400
O1797       O  0.94427699  0.56742233  0.64063386    -0.39100
O1798       O  0.95861165  0.52671239  0.66868082    -0.39000
O1799       O  0.81304975  0.48696908  0.58765878    -0.39700
O1800       O  0.82616266  0.44468850  0.61397067    -0.39800
C1801       C  0.30208715  0.41517505  0.15643893    -0.12100
C1802       C  0.27830164  0.43811374  0.16186264     0.05000
C1803       C  0.25721133  0.43419624  0.18764806    -0.07300
C1804       C  0.25801182  0.40603023  0.20477088    -0.08100
C1805       C  0.27906286  0.38138571  0.19636689    -0.02600
C1806       C  0.30269059  0.38695044  0.17327689     0.04200
N1807       N  0.32542918  0.36324091  0.16410759     0.66700
H1808       H  0.31981450  0.41845246  0.13801762     0.15600
H1809       H  0.24013560  0.40237778  0.22298181     0.15300
N1810       N  0.23326027  0.45703260  0.19551558     0.74400
O1811       O  0.31889386  0.34450456  0.14137057    -0.39100
O1812       O  0.35412692  0.36721293  0.17169643    -0.39000
O1813       O  0.20613633  0.45374690  0.18325989    -0.39700
O1814       O  0.23544029  0.47167390  0.22180609    -0.39800
C1815       C  0.35531035  0.46923743  0.09483125    -0.12100
C1816       C  0.33042408  0.48066053  0.07625045     0.05000
C1817       C  0.33587122  0.48690774  0.04367813    -0.07300
C1818       C  0.36635803  0.48181976  0.03076237    -0.08100
C1819       C  0.39136158  0.47159321  0.05018258    -0.02600
C1820       C  0.38537180  0.46498324  0.08240391     0.04200
N1821       N  0.41019469  0.45672014  0.10380042     0.66700
H1822       H  0.35186655  0.46522811  0.12009839     0.15600
H1823       H  0.37095800  0.48769233  0.00615086     0.15300
N1824       N  0.31159369  0.49919047  0.02364670     0.74400
O1825       O  0.42372833  0.47866833  0.11934121    -0.39100
O1826       O  0.41133461  0.42865776  0.11403915    -0.39000
O1827       O  0.31142932  0.52859400  0.01801065    -0.39700
O1828       O  0.29840010  0.48049209  0.00405942    -0.39800
C1829       C  0.19434736  0.41829641  0.28401801    -0.12100
C1830       C  0.21929182  0.43843235  0.29335509     0.05000
C1831       C  0.24942539  0.42411631  0.29807330    -0.07300
C1832       C  0.25326473  0.39052924  0.29492507    -0.08100
C1833       C  0.22762332  0.37030463  0.28704519    -0.02600
C1834       C  0.19789142  0.38519086  0.28108667     0.04200
N1835       N  0.17015598  0.36717711  0.27341040     0.66700
H1836       H  0.17096512  0.42832455  0.28004916     0.15600
H1837       H  0.27650879  0.38024517  0.29883144     0.15300
N1838       N  0.27618495  0.44282729  0.30712155     0.74400
O1839       O  0.15103401  0.36036550  0.29548680    -0.39100
O1840       O  0.16037098  0.36680814  0.24502458    -0.39000
O1841       O  0.28499717  0.44281027  0.33581675    -0.39700
O1842       O  0.29566974  0.45104502  0.28588474    -0.39800
C1843       C  0.13588642  0.48281389  0.36939671    -0.12100
C1844       C  0.13965675  0.50571626  0.34574794     0.05000
C1845       C  0.11604480  0.52959696  0.34284118    -0.07300
C1846       C  0.09010286  0.53043667  0.36402363    -0.08100
C1847       C  0.08761737  0.50861034  0.38891563    -0.02600
C1848       C  0.11074599  0.48427555  0.39109788     0.04200
N1849       N  0.11089720  0.46240681  0.41683540     0.66700
H1850       H  0.15368571  0.46442903  0.37235835     0.15600
H1851       H  0.07249613  0.54912699  0.36190104     0.15300
N1852       N  0.11779052  0.55321022  0.31875870     0.74400
O1853       O  0.10328376  0.43384393  0.41142248    -0.39100
O1854       O  0.12768349  0.46883188  0.44087013    -0.39000
O1855       O  0.10066884  0.55011429  0.29430858    -0.39700
O1856       O  0.12804479  0.58047413  0.32617085    -0.39800
C1857       C  0.41969643  0.27226634  0.22082638    -0.12100
C1858       C  0.43621078  0.28946190  0.24417515     0.05000
C1859       C  0.41779283  0.30228243  0.26973594    -0.07300
C1860       C  0.38423664  0.29755980  0.27108767    -0.08100
C1861       C  0.36756270  0.28184831  0.24638055    -0.02600
C1862       C  0.38646067  0.26931091  0.22097064     0.04200
N1863       N  0.37266923  0.25595592  0.19304431     0.66700
H1864       H  0.43263457  0.26323852  0.20020659     0.15600
H1865       H  0.37104022  0.30752142  0.29103939     0.15300
N1866       N  0.43214732  0.32160877  0.29374760     0.74400
O1867       O  0.37268491  0.27288825  0.16845514    -0.39100
O1868       O  0.37290592  0.22609337  0.18975541    -0.39000
O1869       O  0.42902719  0.35139934  0.29224456    -0.39700
O1870       O  0.43844686  0.30930376  0.32024717    -0.39800
C1871       C  0.50074481  0.34864663  0.10373865    -0.12100
C1872       C  0.49533117  0.38137270  0.10683490     0.05000
C1873       C  0.48887986  0.39460402  0.13742668    -0.07300
C1874       C  0.48793675  0.37497016  0.16397162    -0.08100
C1875       C  0.49455215  0.34256180  0.16108535    -0.02600
C1876       C  0.50065852  0.32917642  0.13063755     0.04200
N1877       N  0.50677901  0.29598363  0.12649837     0.66700
H1878       H  0.50634168  0.33843706  0.08055755     0.15600
H1879       H  0.48366342  0.38544102  0.18733896     0.15300
N1880       N  0.48591946  0.42818869  0.14258144     0.74400
O1881       O  0.48367477  0.27755779  0.12160396    -0.39100
O1882       O  0.53421149  0.28707745  0.11812652    -0.39000
O1883       O  0.46106432  0.43875818  0.15580636    -0.39700
O1884       O  0.51083435  0.44468280  0.14433529    -0.39800
C1885       C  0.41667487  0.17857770  0.33503717    -0.12100
C1886       C  0.43955115  0.17555136  0.31089275     0.05000
C1887       C  0.43417774  0.18978697  0.28133029    -0.07300
C1888       C  0.40421786  0.20221214  0.27478785    -0.08100
C1889       C  0.37940262  0.20074471  0.29729907    -0.02600
C1890       C  0.38676156  0.19142060  0.32871433     0.04200
N1891       N  0.36388156  0.19257217  0.35391910     0.66700
H1892       H  0.42119659  0.16862815  0.35830297     0.15600
H1893       H  0.39978517  0.21040867  0.25088269     0.15300
N1894       N  0.45730489  0.18837713  0.25638761     0.74400
O1895       O  0.34901361  0.16758286  0.36088942    -0.39100
O1896       O  0.36557237  0.21476215  0.37435237    -0.39000
O1897       O  0.45638032  0.16568429  0.23646463    -0.39700
O1898       O  0.47218010  0.21333689  0.24933044    -0.39800
C1899       C  0.43533909  0.07032324  0.35564528    -0.12100
C1900       C  0.46643553  0.06938475  0.34363057     0.05000
C1901       C  0.48589193  0.04381359  0.35292123    -0.07300
C1902       C  0.47673142  0.02564974  0.37926987    -0.08100
C1903       C  0.45092588  0.03563167  0.39855919    -0.02600
C1904       C  0.42789324  0.05557557  0.38412331     0.04200
N1905       N  0.39870191  0.06496319  0.39893693     0.66700
H1906       H  0.41805906  0.08695513  0.34642786     0.15600
H1907       H  0.49351996  0.00849865  0.38835173     0.15300
N1908       N  0.51583020  0.03752663  0.33807432     0.74400
O1909       O  0.39643122  0.09291614  0.40992931    -0.39100
O1910       O  0.37360150  0.05132680  0.38983139    -0.39000
O1911       O  0.54081873  0.04719027  0.35152558    -0.39700
O1912       O  0.51775462  0.01499573  0.31801877    -0.39800
C1913       C  0.20534591  0.88581266  0.24169146    -0.12100
C1914       C  0.22066359  0.86792031  0.26551346     0.05000
C1915       C  0.23131317  0.88540092  0.29274923    -0.07300
C1916       C  0.22567002  0.91850766  0.29585606    -0.08100
C1917       C  0.20959913  0.93622546  0.27263671    -0.02600
C1918       C  0.19960024  0.91917216  0.24504166     0.04200
N1919       N  0.18282432  0.93494989  0.22034754     0.66700
H1920       H  0.19717035  0.87373664  0.22031767     0.15600
H1921       H  0.23295790  0.93041966  0.31767923     0.15300
N1922       N  0.24756579  0.87012589  0.31818995     0.74400
O1923       O  0.19819312  0.94470639  0.19656187    -0.39100
O1924       O  0.15327534  0.93078130  0.21786228    -0.39000
O1925       O  0.27706652  0.87435603  0.32114964    -0.39700
O1926       O  0.23177519  0.86097666  0.34195369    -0.39800
C1927       C  0.30200323  0.90252511  0.23636716    -0.12100
C1928       C  0.30952162  0.87814990  0.21450230     0.05000
C1929       C  0.32131007  0.88615016  0.18402593    -0.07300
C1930       C  0.32685707  0.91789639  0.17700419    -0.08100
C1931       C  0.32098220  0.94179573  0.19970589    -0.02600
C1932       C  0.30789058  0.93401220  0.22942968     0.04200
N1933       N  0.30207298  0.95739043  0.25367637     0.66700
H1934       H  0.29249992  0.89730383  0.25971465     0.15600
H1935       H  0.33618993  0.92383349  0.15372597     0.15300
N1936       N  0.32872270  0.86275597  0.16017349     0.74400
O1937       O  0.27407130  0.96731659  0.25772521    -0.39100
O1938       O  0.32169081  0.96025770  0.27618126    -0.39000
O1939       O  0.31001269  0.85925979  0.13699543    -0.39700
O1940       O  0.35717573  0.85376212  0.15702306    -0.39800
C1941       C  0.12071660  0.70447909  0.22643704    -0.12100
C1942       C  0.13368060  0.73190339  0.21242712     0.05000
C1943       C  0.11279944  0.75120197  0.19453550    -0.07300
C1944       C  0.08093934  0.74150505  0.18937833    -0.08100
C1945       C  0.06920623  0.71281873  0.20171627    -0.02600
C1946       C  0.08950109  0.69462896  0.22090553     0.04200
N1947       N  0.07945300  0.66494753  0.23370410     0.66700
H1948       H  0.13532109  0.68949249  0.24120505     0.15600
H1949       H  0.06582611  0.75564347  0.17421921     0.15300
N1950       N  0.12351263  0.77989786  0.18033800     0.74400
O1951       O  0.08459041  0.63976016  0.21784112    -0.39100
O1952       O  0.07442152  0.66306099  0.26326802    -0.39000
O1953       O  0.12861259  0.78019053  0.15070750    -0.39700
O1954       O  0.11888119  0.80590351  0.19495069    -0.39800
C1955       C  0.07499940  0.81780564  0.27905252    -0.12100
C1956       C  0.05230720  0.79358218  0.28184995     0.05000
C1957       C  0.06235582  0.76228976  0.28687065    -0.07300
C1958       C  0.09459457  0.75588775  0.29028765    -0.08100
C1959       C  0.11768879  0.78018586  0.28890633    -0.02600
C1960       C  0.10750608  0.81146218  0.28248144     0.04200
N1961       N  0.12937914  0.83722774  0.28030140     0.66700
H1962       H  0.06724840  0.84220539  0.27617565     0.15600
H1963       H  0.10131191  0.73154532  0.29516772     0.15300
N1964       N  0.04000278  0.73744093  0.29249048     0.74400
O1965       O  0.13768922  0.84666396  0.25312185    -0.39100
O1966       O  0.13279793  0.85559859  0.30403340    -0.39000
O1967       O  0.03496400  0.72850450  0.32063859    -0.39700
O1968       O  0.03090168  0.72018573  0.26951436    -0.39800
C1969       C  0.31392034  0.79504965  0.08865008    -0.12100
C1970       C  0.29269814  0.81253572  0.07032516     0.05000
C1971       C  0.26207634  0.81899856  0.08292400    -0.07300
C1972       C  0.25393229  0.80860761  0.11381914    -0.08100
C1973       C  0.27564435  0.79143718  0.13238722    -0.02600
C1974       C  0.30581678  0.78407901  0.11876516     0.04200
N1975       N  0.32853680  0.76442469  0.13437300     0.66700
H1976       H  0.33726823  0.78926476  0.07921146     0.15600
H1977       H  0.23067369  0.81433969  0.12340401     0.15300
N1978       N  0.23960234  0.83750053  0.06575847     0.74400
O1979       O  0.32954906  0.73520981  0.12718560    -0.39100
O1980       O  0.35257191  0.77722816  0.14693850    -0.39000
O1981       O  0.21568831  0.82382927  0.05389134    -0.39700
O1982       O  0.23853072  0.86712554  0.07080703    -0.39800
C1983       C  0.17690000  0.70954270  0.10350361    -0.12100
C1984       C  0.21009732  0.71091558  0.10688020     0.05000
C1985       C  0.22853185  0.71422595  0.07869913    -0.07300
C1986       C  0.21391006  0.71601262  0.04879020    -0.08100
C1987       C  0.18114395  0.71246828  0.04531174    -0.02600
C1988       C  0.16242609  0.70956391  0.07330747     0.04200
N1989       N  0.12871018  0.70617435  0.07177924     0.66700
H1990       H  0.16191279  0.70731332  0.12438647     0.15600
H1991       H  0.22884093  0.71704710  0.02773887     0.15300
N1992       N  0.26227670  0.71209528  0.07902610     0.74400
O1993       O  0.11692144  0.67869719  0.07363215    -0.39100
O1994       O  0.11152525  0.72988540  0.07881117    -0.39000
O1995       O  0.27476663  0.68543919  0.07293319    -0.39700
O1996       O  0.27805662  0.73676951  0.07331955    -0.39800
C1997       C  0.42148725  0.68460688  0.23535869    -0.12100
C1998       C  0.42998575  0.68621399  0.20295922     0.05000
C1999       C  0.40660929  0.69532522  0.18090135    -0.07300
C2000       C  0.37582781  0.70219227  0.19113026    -0.08100
C2001       C  0.36680111  0.70068854  0.22330044    -0.02600
C2002       C  0.39014576  0.69146018  0.24570917     0.04200
N2003       N  0.38275954  0.68864073  0.27878214     0.66700
H2004       H  0.43899679  0.67715941  0.25260395     0.15600
H2005       H  0.35873775  0.70905900  0.17332117     0.15300
N2006       N  0.41389016  0.69902693  0.14788677     0.74400
O2007       O  0.37623943  0.66152805  0.28951518    -0.39100
O2008       O  0.39191447  0.71008085  0.29790098    -0.39000
O2009       O  0.40400209  0.67853275  0.12810673    -0.39700
O2010       O  0.42166915  0.72615789  0.13806481    -0.39800
C2011       C  0.41458568  0.77671432  0.26593480    -0.12100
C2012       C  0.38952550  0.78428910  0.28734087     0.05000
C2013       C  0.39741226  0.79187983  0.31929208    -0.07300
C2014       C  0.42924576  0.79547690  0.32790597    -0.08100
C2015       C  0.45375425  0.79100770  0.30565391    -0.02600
C2016       C  0.44644902  0.77971810  0.27498584     0.04200
N2017       N  0.47103254  0.77369724  0.25212555     0.66700
H2018       H  0.40960192  0.76959261  0.24157203     0.15600
H2019       H  0.43480701  0.80339491  0.35192548     0.15300
N2020       N  0.37378787  0.79685996  0.34331784     0.74400
O2021       O  0.48516272  0.74720384  0.25207135    -0.39100
O2022       O  0.48297461  0.79657490  0.23709397    -0.39000
O2023       O  0.36956893  0.77542228  0.36363266    -0.39700
O2024       O  0.36534977  0.82493769  0.35016702    -0.39800
C2025       C  0.25618899  0.60793434  0.29262657    -0.12100
C2026       C  0.23474076  0.62556704  0.27408185     0.05000
C2027       C  0.20877593  0.60876195  0.26026145    -0.07300
C2028       C  0.20380897  0.57652292  0.26698312    -0.08100
C2029       C  0.22425036  0.55937798  0.28670326    -0.02600
C2030       C  0.25123577  0.57527348  0.29890586     0.04200
N2031       N  0.27331288  0.55906889  0.31866331     0.66700
H2032       H  0.27662440  0.61968824  0.30298079     0.15600
H2033       H  0.18284043  0.56494972  0.25746038     0.15300
N2034       N  0.18684635  0.62373258  0.23925645     0.74400
O2035       O  0.29811391  0.54747515  0.30615907    -0.39100
O2036       O  0.27251131  0.56394231  0.34836965    -0.39000
O2037       O  0.18939746  0.61842738  0.20970178    -0.39700
O2038       O  0.16047301  0.63309484  0.25023399    -0.39800
C2039       C  0.30163569  0.57753072  0.13644273    -0.12100
C2040       C  0.28595573  0.55294067  0.15239731     0.05000
C2041       C  0.27229839  0.55964487  0.18265963    -0.07300
C2042       C  0.27167783  0.59067852  0.19431268    -0.08100
C2043       C  0.28465366  0.61542238  0.17684995    -0.02600
C2044       C  0.30150168  0.60849277  0.14856930     0.04200
N2045       N  0.31685390  0.63265320  0.13065100     0.66700
H2046       H  0.31366027  0.57308406  0.11396828     0.15600
H2047       H  0.25958011  0.59566369  0.21661926     0.15300
N2048       N  0.25796337  0.53590326  0.20179993     0.74400
O2049       O  0.34571653  0.63842227  0.13609889    -0.39100
O2050       O  0.30548545  0.63996591  0.10399290    -0.39000
O2051       O  0.27355105  0.52532067  0.22502705    -0.39700
O2052       O  0.22805188  0.53438007  0.20253971    -0.39800
C2053       C  0.31290962  0.75024372  0.41617086    -0.12100
C2054       C  0.30262276  0.78005659  0.42788731     0.05000
C2055       C  0.28560821  0.80002133  0.40750068    -0.07300
C2056       C  0.27949645  0.79059858  0.37630292    -0.08100
C2057       C  0.28996112  0.76119373  0.36368653    -0.02600
C2058       C  0.30679998  0.74062522  0.38427021     0.04200
N2059       N  0.31881921  0.71065770  0.37326843     0.66700
H2060       H  0.32679040  0.73494568  0.43137314     0.15600
H2061       H  0.26637720  0.80713588  0.36175463     0.15300
N2062       N  0.27487753  0.83071152  0.41782220     0.74400
O2063       O  0.34775203  0.70839689  0.36563759    -0.39100
O2064       O  0.30374558  0.68574144  0.38003203    -0.39000
O2065       O  0.28866250  0.85500439  0.40722786    -0.39700
O2066       O  0.24726930  0.83352394  0.42927053    -0.39800
C2067       C  0.21878336  0.72625079  0.40447324    -0.12100
C2068       C  0.20403199  0.70770930  0.38062194     0.05000
C2069       C  0.18550504  0.68165382  0.39016911    -0.07300
C2070       C  0.17975220  0.67660470  0.42283805    -0.08100
C2071       C  0.19266526  0.69678565  0.44678438    -0.02600
C2072       C  0.21358284  0.72097149  0.43702209     0.04200
N2073       N  0.22824521  0.74188742  0.45953810     0.66700
H2074       H  0.23358611  0.74608269  0.39786912     0.15600
H2075       H  0.16404482  0.65738587  0.42939721     0.15300
N2076       N  0.17055046  0.66153180  0.36701180     0.74400
O2077       O  0.25502060  0.73449126  0.47062177    -0.39100
O2078       O  0.21892946  0.77038284  0.46161304    -0.39000
O2079       O  0.18587604  0.63848021  0.35500149    -0.39700
O2080       O  0.14520601  0.67058148  0.35393145    -0.39800
C2081       C  0.88356562  0.23004429  0.21920290    -0.12100
C2082       C  0.86816640  0.24949024  0.24220101     0.05000
C2083       C  0.88848661  0.26913454  0.26114530    -0.07300
C2084       C  0.92160829  0.26994172  0.25586444    -0.08100
C2085       C  0.93612600  0.25388425  0.23035562    -0.02600
C2086       C  0.91649508  0.23326744  0.21212239     0.04200
N2087       N  0.92900515  0.21679140  0.18499147     0.66700
H2088       H  0.86963918  0.21361873  0.20500366     0.15600
H2089       H  0.93558482  0.28691651  0.26948812     0.15300
N2090       N  0.87630647  0.29297059  0.28210723     0.74400
O2091       O  0.93638512  0.18784690  0.18752656    -0.39100
O2092       O  0.92409648  0.22794195  0.15767695    -0.39000
O2093       O  0.87813089  0.28853328  0.31172351    -0.39700
O2094       O  0.87824950  0.32105532  0.27223100    -0.39800
C2095       C  0.89310328  0.18961199  0.30252840    -0.12100
C2096       C  0.87411393  0.19779701  0.32863901     0.05000
C2097       C  0.88633528  0.19655469  0.35957968    -0.12900
C2098       C  0.91777208  0.18734553  0.36426508    -0.08100
C2099       C  0.93735372  0.17972869  0.33813498    -0.02600
C2100       C  0.92461901  0.18037246  0.30699048     0.04200
N2101       N  0.94281168  0.17055721  0.27981648     0.66700
H2102       H  0.88350670  0.19059776  0.27865402     0.15600
H2103       H  0.92714002  0.18704489  0.38827746     0.15300
N2104       N  0.86697415  0.20526303  0.38626638     0.74400
O2105       O  0.93785291  0.14342936  0.26767283    -0.39100
O2106       O  0.95656858  0.19133434  0.26337822    -0.39000
O2107       O  0.84717627  0.18540776  0.39656060    -0.39700
O2108       O  0.86379840  0.23428497  0.39366464    -0.39800
C2109       C  0.77103509  0.10754601  0.30901398    -0.12100
C2110       C  0.78656605  0.12353434  0.28426245     0.05000
C2111       C  0.81166080  0.10789938  0.26810569    -0.07300
C2112       C  0.82172417  0.07757145  0.27818555    -0.08100
C2113       C  0.80671556  0.06252976  0.30398162    -0.02600
C2114       C  0.78091093  0.07771679  0.31905028     0.04200
N2115       N  0.76488227  0.06362975  0.34536607     0.66700
H2116       H  0.75109959  0.11849254  0.32124200     0.15600
H2117       H  0.84179884  0.06618731  0.26651123     0.15300
N2118       N  0.82746946  0.12275777  0.24210860     0.74400
O2119       O  0.77378498  0.07050477  0.37328255    -0.39100
O2120       O  0.73738108  0.05254098  0.34119793    -0.39000
O2121       O  0.84857465  0.14332210  0.24763588    -0.39700
O2122       O  0.81576149  0.12048894  0.21454678    -0.39800
C2123       C  0.68972749  0.06587756  0.17843173    -0.12100
C2124       C  0.70331116  0.04128323  0.19669698     0.05000
C2125       C  0.71965028  0.05017055  0.22473924    -0.07300
C2126       C  0.72040978  0.08201389  0.23470553    -0.08100
C2127       C  0.70512859  0.10612733  0.21764442    -0.02600
C2128       C  0.69059562  0.09789067  0.18854843     0.04200
N2129       N  0.67525523  0.12142882  0.16976813     0.66700
H2130       H  0.67748775  0.06023236  0.15642675     0.15600
H2131       H  0.73229440  0.08759598  0.25689021     0.15300
N2132       N  0.73419004  0.02741511  0.24480827     0.74400
O2133       O  0.69143595  0.13764928  0.15057337    -0.39100
O2134       O  0.64726951  0.12994335  0.17655258    -0.39000
O2135       O  0.76411696  0.02598346  0.24504813    -0.39700
O2136       O  0.71902384  0.01853682  0.26907384    -0.39800
C2137       C  0.70020986  0.22660437  0.13786194    -0.12100
C2138       C  0.72755334  0.21135689  0.14946534     0.05000
C2139       C  0.74522067  0.19204979  0.12802213    -0.07300
C2140       C  0.73397768  0.18670332  0.09651521    -0.08100
C2141       C  0.70533702  0.20066990  0.08606848    -0.02600
C2142       C  0.68896677  0.22124457  0.10712324     0.04200
N2143       N  0.65968978  0.23589862  0.09821520     0.66700
H2144       H  0.68631277  0.24223504  0.15320429     0.15600
H2145       H  0.74672152  0.17045207  0.08083472     0.15300
N2146       N  0.77369750  0.17684512  0.13823724     0.74400
O2147       O  0.63391057  0.22236231  0.10513192    -0.39100
O2148       O  0.65941161  0.26520594  0.09216132    -0.39000
O2149       O  0.77202870  0.15087266  0.15286998    -0.39700
O2150       O  0.79925135  0.19241872  0.13883555    -0.39800
C2151       C  0.75831237  0.28459250  0.11309754    -0.12100
C2152       C  0.78174458  0.28255055  0.13686502     0.05000
C2153       C  0.81318339  0.27596987  0.12706869    -0.07300
C2154       C  0.82069578  0.27365248  0.09435714    -0.08100
C2155       C  0.79727057  0.27730242  0.07068833    -0.02600
C2156       C  0.76572458  0.28238394  0.08064093     0.04200
N2157       N  0.74107009  0.28844724  0.05837168     0.66700
H2158       H  0.73379215  0.28929173  0.11948758     0.15600
H2159       H  0.84528722  0.27037170  0.08733920     0.15300
N2160       N  0.83763723  0.27121782  0.14993492     0.74400
O2161       O  0.71979058  0.26770963  0.05488102    -0.39100
O2162       O  0.73469667  0.31692645  0.05168142    -0.39000
O2163       O  0.83941997  0.24489988  0.16385001    -0.39700
O2164       O  0.85308372  0.29470988  0.16055213    -0.39800
C2165       C  0.61289152  0.27095709  0.22360256    -0.12100
C2166       C  0.62507471  0.27554254  0.25439617     0.05000
C2167       C  0.60302888  0.28554883  0.27837791    -0.07300
C2168       C  0.57026946  0.29047739  0.27089700    -0.08100
C2169       C  0.55858052  0.28639225  0.23960033    -0.02600
C2170       C  0.58095881  0.27656481  0.21600863     0.04200
N2171       N  0.57212161  0.27273213  0.18339962     0.66700
H2172       H  0.62856020  0.26336585  0.20442279     0.15600
H2173       H  0.55426771  0.29891121  0.28941892     0.15300
N2174       N  0.61327408  0.29151434  0.31026873     0.74400
O2175       O  0.58005618  0.29410880  0.16413571    -0.39100
O2176       O  0.56646325  0.24513819  0.17275040    -0.39000
O2177       O  0.61754462  0.31987249  0.31940775    -0.39700
O2178       O  0.60930530  0.27029709  0.33087113    -0.39800
C2179       C  0.55592693  0.15698677  0.27843118    -0.12100
C2180       C  0.55081074  0.14443160  0.30860644     0.05000
C2181       C  0.57544994  0.14498901  0.33112252    -0.07300
C2182       C  0.60478014  0.15816662  0.32289613    -0.08100
C2183       C  0.61004455  0.17104320  0.29253348    -0.02600
C2184       C  0.58487552  0.17037505  0.27016612     0.04200
N2185       N  0.58746390  0.18384838  0.23921149     0.66700
H2186       H  0.53679277  0.15716789  0.26117735     0.15600
H2187       H  0.62335891  0.15858729  0.34064108     0.15300
N2188       N  0.57069572  0.13420666  0.36289263     0.74400
O2189       O  0.59610905  0.16625334  0.21619870    -0.39100
O2190       O  0.57161099  0.20857781  0.23344795    -0.39000
O2191       O  0.58292575  0.10812457  0.37100617    -0.39700
O2192       O  0.56305063  0.15420759  0.38424161    -0.39800
C2193       C  0.74045537  0.37593493  0.32605114    -0.12100
C2194       C  0.76185062  0.35674452  0.30816367     0.05000
C2195       C  0.78873521  0.37222091  0.29491930    -0.07300
C2196       C  0.79315389  0.40486084  0.29832620    -0.08100
C2197       C  0.77366344  0.42321875  0.31783012    -0.02600
C2198       C  0.74689023  0.40876657  0.33179595     0.04200
N2199       N  0.72712700  0.42687773  0.35292696     0.66700
H2200       H  0.71975259  0.36523597  0.33683428     0.15600
H2201       H  0.81474769  0.41522308  0.28886235     0.15300
N2202       N  0.81564506  0.35483745  0.28416078     0.74400
O2203       O  0.70600471  0.44460592  0.34136519    -0.39100
O2204       O  0.73616474  0.43173848  0.38120278    -0.39000
O2205       O  0.82187226  0.35389575  0.25473073    -0.39700
O2206       O  0.83784140  0.35161876  0.30395164    -0.39800
C2207       C  0.73776474  0.40000801  0.22701042    -0.12100
C2208       C  0.71417817  0.37719752  0.23298164     0.05000
C2209       C  0.68363872  0.38802040  0.24211071    -0.07300
C2210       C  0.67688863  0.42073280  0.24245400    -0.08100
C2211       C  0.70004677  0.44317798  0.23424098    -0.02600
C2212       C  0.73100188  0.43251127  0.22748407     0.04200
N2213       N  0.75569272  0.45404948  0.21930929     0.66700
H2214       H  0.76165926  0.39268300  0.22061490     0.15600
H2215       H  0.65278793  0.42856022  0.24731649     0.15300
N2216       N  0.65928645  0.36649934  0.25146968     0.74400
O2217       O  0.77742257  0.45886154  0.23937551    -0.39100
O2218       O  0.76134921  0.45904092  0.19026222    -0.39000
O2219       O  0.65467749  0.36215941  0.28079498    -0.39700
O2220       O  0.63739339  0.35982770  0.23207495    -0.39800
C2221       C  0.69260866  0.23777621  0.40428523    -0.12100
C2222       C  0.69821268  0.21320369  0.38198921     0.05000
C2223       C  0.69588335  0.18130355  0.39243937    -0.07300
C2224       C  0.68675761  0.17493348  0.42374270    -0.08100
C2225       C  0.68038865  0.19938390  0.44589116    -0.02600
C2226       C  0.68426755  0.23119905  0.43606621     0.04200
N2227       N  0.67906780  0.25723889  0.45753218     0.66700
H2228       H  0.69525929  0.26232127  0.39720765     0.15600
H2229       H  0.68456193  0.15031038  0.43077610     0.15300
N2230       N  0.70287931  0.15477354  0.37192404     0.74400
O2231       O  0.70281546  0.27104512  0.46955977    -0.39100
O2232       O  0.65292467  0.27188231  0.45654554    -0.39000
O2233       O  0.72962502  0.14143990  0.37427099    -0.39700
O2234       O  0.68020318  0.13925259  0.35988835    -0.39800
C2235       C  0.77638677  0.30594924  0.41221209    -0.12100
C2236       C  0.77905115  0.27284010  0.40819825     0.05000
C2237       C  0.77852786  0.25364891  0.43583755    -0.07300
C2238       C  0.77761650  0.26793297  0.46614882    -0.08100
C2239       C  0.77755944  0.30099377  0.46991810    -0.02600
C2240       C  0.77573927  0.32007461  0.44257342     0.04200
N2241       N  0.77326915  0.35388357  0.44507000     0.66700
H2242       H  0.77551393  0.32123116  0.39162859     0.15600
H2243       H  0.77944025  0.25298083  0.48692623     0.15300
N2244       N  0.78169243  0.21984728  0.43415275     0.74400
O2245       O  0.79745305  0.37052857  0.43935209    -0.39100
O2246       O  0.74614659  0.36651314  0.44308362    -0.39000
O2247       O  0.80728361  0.20748147  0.44348608    -0.39700
O2248       O  0.75689490  0.20312451  0.43407289    -0.39800
C2249       C  0.11827502  0.80590534  0.69714147    -0.12100
C2250       C  0.12618532  0.80533468  0.72953534     0.05000
C2251       C  0.10221961  0.81133552  0.75223806    -0.07300
C2252       C  0.07062720  0.81643728  0.74200215    -0.08100
C2253       C  0.06282748  0.81597561  0.70920172    -0.02600
C2254       C  0.08742802  0.81065046  0.68687555     0.04200
N2255       N  0.08178157  0.80834622  0.65342759     0.66700
H2256       H  0.13625246  0.80161148  0.67902126     0.15600
H2257       H  0.05227087  0.82097013  0.75961947     0.15300
N2258       N  0.10954768  0.81178540  0.78541614     0.74400
O2259       O  0.09412075  0.82903571  0.63578661    -0.39100
O2260       O  0.07544019  0.78139447  0.64153979    -0.39000
O2261       O  0.12215242  0.83624739  0.79756947    -0.39700
O2262       O  0.11061708  0.78595456  0.80029765    -0.39800
C2263       C  0.04682080  0.71643036  0.78105602    -0.12100
C2264       C  0.04349414  0.71263455  0.81394992     0.05000
C2265       C  0.07118071  0.71177869  0.83295268    -0.07300
C2266       C  0.10121076  0.71351282  0.81868530    -0.08100
C2267       C  0.10475086  0.71525413  0.78544006    -0.02600
C2268       C  0.07687757  0.71711683  0.76660889     0.04200
N2269       N  0.07824691  0.71687594  0.73263007     0.66700
H2270       H  0.02593806  0.71608020  0.76602324     0.15600
H2271       H  0.12192491  0.71275008  0.83391258     0.15300
N2272       N  0.06942984  0.70855267  0.86678343     0.74400
O2273       O  0.07222104  0.74214444  0.71795233    -0.39100
O2274       O  0.07631199  0.69061078  0.71790981    -0.39000
O2275       O  0.07780835  0.68259831  0.87903135    -0.39700
O2276       O  0.06903236  0.73337362  0.88398496    -0.39800
C2277       C  0.37402575  0.79956320  0.73344486    -0.12100
C2278       C  0.36029624  0.77538929  0.71452321     0.05000
C2279       C  0.38010470  0.75873039  0.69273201    -0.07300
C2280       C  0.41214972  0.76808658  0.68906001    -0.08100
C2281       C  0.42472575  0.79380214  0.70671560    -0.02600
C2282       C  0.40525238  0.80924652  0.72936932     0.04200
N2283       N  0.41581529  0.83667983  0.74677946     0.66700
H2284       H  0.35997614  0.81255327  0.75093514     0.15600
H2285       H  0.42663320  0.75657927  0.67089562     0.15300
N2286       N  0.36791753  0.73388744  0.67280791     0.74400
O2287       O  0.41048824  0.86381567  0.73543084    -0.39100
O2288       O  0.42048711  0.83439439  0.77633902    -0.39000
O2289       O  0.36366862  0.73913283  0.64360413    -0.39700
O2290       O  0.36990529  0.70552075  0.68203621    -0.39800
C2291       C  0.40090798  0.74563876  0.79312801    -0.12100
C2292       C  0.37678403  0.72252878  0.79411588     0.05000
C2293       C  0.38592302  0.69015643  0.79417970    -0.07300
C2294       C  0.41819881  0.68203152  0.79552148    -0.08100
C2295       C  0.44193739  0.70539053  0.79682501    -0.02600
C2296       C  0.43297918  0.73749523  0.79470186     0.04200
N2297       N  0.45561521  0.76255566  0.79617055     0.66700
H2298       H  0.39505625  0.77071692  0.79268399     0.15600
H2299       H  0.42471430  0.65714287  0.79713346     0.15300
N2300       N  0.36316997  0.66509008  0.79347839     0.74400
O2301       O  0.45948876  0.77893097  0.77155275    -0.39100
O2302       O  0.46189471  0.77494892  0.82293944    -0.39000
O2303       O  0.36019861  0.64893430  0.76815570    -0.39700
O2304       O  0.35430548  0.65317987  0.81945779    -0.39800
C2305       C  0.20986715  0.71077596  0.87409126    -0.12100
C2306       C  0.20208704  0.74125535  0.86333862     0.05000
C2307       C  0.18663285  0.76237212  0.88484423    -0.07300
C2308       C  0.17894423  0.75236408  0.91614180    -0.08100
C2309       C  0.18620616  0.72126513  0.92622394    -0.02600
C2310       C  0.20201130  0.70067922  0.90454564     0.04200
N2311       N  0.20921816  0.66852028  0.91236284     0.66700
H2312       H  0.22178231  0.69383798  0.85844228     0.15600
H2313       H  0.16605634  0.76834869  0.93197958     0.15300
N2314       N  0.17776681  0.79348931  0.87492515     0.74400
O2315       O  0.19168613  0.64686106  0.90115087    -0.39100
O2316       O  0.23717358  0.66158630  0.92052789    -0.39000
O2317       O  0.15224435  0.79720542  0.85974347    -0.39700
O2318       O  0.19831226  0.81527146  0.87481798    -0.39800
C2319       C  0.28850440  0.82825773  0.89515085    -0.12100
C2320       C  0.28969792  0.79556724  0.88710705     0.05000
C2321       C  0.29227972  0.77353764  0.91252094    -0.07300
C2322       C  0.29437820  0.78420148  0.94416057    -0.08100
C2323       C  0.29481790  0.81649647  0.95172785    -0.02600
C2324       C  0.29106275  0.83872648  0.92714480     0.04200
N2325       N  0.28998064  0.87199320  0.93460627     0.66700
H2326       H  0.28592586  0.84574837  0.87660234     0.15600
H2327       H  0.29815850  0.76697701  0.96279417     0.15300
N2328       N  0.29545720  0.74014802  0.90689759     0.74400
O2329       O  0.31474443  0.88852622  0.93164780    -0.39100
O2330       O  0.26676971  0.88309699  0.95029787    -0.39000
O2331       O  0.32289077  0.72801871  0.90693855    -0.39700
O2332       O  0.27191326  0.72254731  0.91225330    -0.39800
C2333       C  0.23634384  0.89873149  0.80167693    -0.12100
C2334       C  0.25822802  0.88041281  0.78366242     0.05000
C2335       C  0.28524028  0.89609474  0.77066242    -0.07300
C2336       C  0.28978825  0.92834091  0.77604583    -0.08100
C2337       C  0.26953507  0.94583711  0.79576934    -0.02600
C2338       C  0.24220559  0.93127632  0.80817119     0.04200
N2339       N  0.22155513  0.94883737  0.82891990     0.66700
H2340       H  0.21550514  0.88758212  0.81172990     0.15600
H2341       H  0.31131704  0.93923673  0.76707078     0.15300
N2342       N  0.31007172  0.87951194  0.75400009     0.74400
O2343       O  0.20234117  0.96848288  0.81712718    -0.39100
O2344       O  0.22808672  0.95081975  0.85818956    -0.39000
O2345       O  0.31176530  0.88150625  0.72408181    -0.39700
O2346       O  0.33437468  0.87102755  0.76926078    -0.39800
C2347       C  0.22774728  0.92413441  0.70727028    -0.12100
C2348       C  0.20512927  0.89977582  0.70311688     0.05000
C2349       C  0.17281847  0.90889936  0.70088964    -0.07300
C2350       C  0.16442729  0.94127221  0.70042314    -0.08100
C2351       C  0.18731667  0.96544417  0.70275765    -0.02600
C2352       C  0.21927131  0.95643493  0.70704468     0.04200
N2353       N  0.24391530  0.97945979  0.70950030     0.66700
H2354       H  0.25266014  0.91829328  0.70981216     0.15600
H2355       H  0.13961490  0.94755811  0.69769317     0.15300
N2356       N  0.14799977  0.88594258  0.69888449     0.74400
O2357       O  0.25496357  0.98563984  0.73672510    -0.39100
O2358       O  0.26095206  0.98467009  0.68535189    -0.39000
O2359       O  0.13119172  0.88098814  0.72325219    -0.39700
O2360       O  0.13727614  0.87835185  0.67182561    -0.39800
C2361       C  0.26691274  0.63321673  0.79292001    -0.12100
C2362       C  0.27754675  0.64394567  0.76309782     0.05000
C2363       C  0.29380991  0.62215741  0.74293382    -0.07300
C2364       C  0.30086926  0.59133379  0.75403278    -0.08100
C2365       C  0.29147470  0.58192568  0.78470092    -0.02600
C2366       C  0.27357479  0.60301478  0.80368220     0.04200
N2367       N  0.26280680  0.59479730  0.83478661     0.66700
H2368       H  0.25359302  0.64859727  0.80902173     0.15600
H2369       H  0.31465078  0.57517677  0.73915418     0.15300
N2370       N  0.30313015  0.63056140  0.71144189     0.74400
O2371       O  0.27741843  0.60621323  0.85844248    -0.39100
O2372       O  0.23421703  0.58662085  0.83828917    -0.39000
O2373       O  0.33200925  0.63598862  0.70564428    -0.39700
O2374       O  0.28475189  0.62402593  0.68862371    -0.39800
C2375       C  0.18372279  0.58564907  0.66588087    -0.12100
C2376       C  0.18754525  0.56120734  0.68822331     0.05000
C2377       C  0.19721985  0.56960009  0.71929360    -0.07300
C2378       C  0.19992919  0.60173431  0.72804076    -0.08100
C2379       C  0.19318139  0.62635214  0.70653274    -0.02600
C2380       C  0.18642388  0.61783297  0.67459054     0.04200
N2381       N  0.18095637  0.64123027  0.65083810     0.66700
H2382       H  0.17694401  0.57980611  0.64161442     0.15600
H2383       H  0.20632939  0.60725264  0.75246528     0.15300
N2384       N  0.20232859  0.54619273  0.74306947     0.74400
O2385       O  0.15309058  0.65127972  0.64649620    -0.39100
O2386       O  0.20155604  0.64525599  0.62939493    -0.39000
O2387       O  0.23047765  0.53864325  0.74991888    -0.39700
O2388       O  0.18052733  0.54087575  0.76297206    -0.39800
C2389       C  0.19274195  0.74189201  0.61742228    -0.12100
C2390       C  0.22092558  0.72802862  0.62875956     0.05000
C2391       C  0.23942708  0.70968742  0.60701327    -0.07300
C2392       C  0.22833743  0.70418835  0.57562385    -0.08100
C2393       C  0.19896187  0.71642012  0.56555293    -0.02600
C2394       C  0.18153893  0.73602818  0.58677810     0.04200
N2395       N  0.15128127  0.74891200  0.57833922     0.66700
H2396       H  0.17816877  0.75678732  0.63286925     0.15600
H2397       H  0.24178881  0.68869019  0.55976308     0.15300
N2398       N  0.26862586  0.69535210  0.61643691     0.74400
O2399       O  0.14966081  0.77735248  0.56926814    -0.39100
O2400       O  0.12648669  0.73574324  0.58870532    -0.39000
O2401       O  0.26890671  0.66624302  0.62336112    -0.39700
O2402       O  0.29437055  0.70859159  0.60891140    -0.39800
C2403       C  0.30550635  0.78552999  0.60345461    -0.12100
C2404       C  0.27698603  0.80202238  0.60974920     0.05000
C2405       C  0.25810895  0.81127109  0.58349154    -0.07300
C2406       C  0.26830226  0.80506249  0.55228320    -0.08100
C2407       C  0.29722630  0.78995203  0.54610603    -0.02600
C2408       C  0.31554975  0.77931184  0.57189846     0.04200
N2409       N  0.34440072  0.76221937  0.56608715     0.66700
H2410       H  0.31980149  0.77725703  0.62305202     0.15600
H2411       H  0.25465113  0.81451461  0.53266991     0.15300
N2412       N  0.22969203  0.82940857  0.58779405     0.74400
O2413       O  0.37027454  0.77715194  0.56436802    -0.39100
O2414       O  0.34308396  0.73389732  0.55587792    -0.39000
O2415       O  0.23065806  0.85906901  0.58371862    -0.39700
O2416       O  0.20333015  0.81539400  0.58589347    -0.39800
C2417       C  0.23420202  0.21228461  0.93323850    -0.12100
C2418       C  0.26298452  0.22403774  0.94571652     0.05000
C2419       C  0.28225604  0.24225950  0.92535271    -0.07300
C2420       C  0.27348736  0.24723121  0.89365429    -0.08100
C2421       C  0.24588774  0.23420050  0.88011210    -0.02600
C2422       C  0.22545226  0.21725113  0.90091128     0.04200
N2423       N  0.19601180  0.20457151  0.88992608     0.66700
H2424       H  0.21909100  0.19789223  0.94817538     0.15600
H2425       H  0.28900996  0.26147355  0.87931466     0.15300
N2426       N  0.31151455  0.25563107  0.93614776     0.74400
O2427       O  0.19452217  0.17548716  0.88236173    -0.39100
O2428       O  0.17070375  0.21931298  0.89671858    -0.39000
O2429       O  0.33715947  0.24402796  0.92562730    -0.39700
O2430       O  0.31151368  0.28380860  0.94679694    -0.39800
C2431       C  0.21605651  0.32587003  0.91719903    -0.12100
C2432       C  0.19263364  0.32404189  0.89346788     0.05000
C2433       C  0.16033162  0.32640459  0.90268232    -0.07300
C2434       C  0.15238554  0.33061033  0.93494418    -0.08100
C2435       C  0.17600802  0.33171137  0.95829998    -0.02600
C2436       C  0.20808634  0.32924072  0.94922245     0.04200
N2437       N  0.23305832  0.33004722  0.97216064     0.66700
H2438       H  0.24104533  0.32435562  0.91111215     0.15600
H2439       H  0.12759301  0.33159619  0.94191608     0.15300
N2440       N  0.13526090  0.32241878  0.88021967     0.74400
O2441       O  0.24548573  0.30415387  0.98057273    -0.39100
O2442       O  0.24847959  0.35548779  0.97599065    -0.39000
O2443       O  0.12248707  0.29544972  0.87736142    -0.39700
O2444       O  0.12054205  0.34660459  0.87058697    -0.39800
C2445       C  0.17682890  0.09349490  0.75472054    -0.12100
C2446       C  0.18955809  0.08256738  0.72553496     0.05000
C2447       C  0.20835971  0.10314997  0.70747669    -0.07300
C2448       C  0.21307626  0.13410996  0.71788613    -0.08100
C2449       C  0.19857152  0.14644151  0.74575805    -0.02600
C2450       C  0.18131434  0.12527208  0.76511717     0.04200
N2451       N  0.16735585  0.13551706  0.79452128     0.66700
H2452       H  0.16175636  0.07794324  0.76848274     0.15600
H2453       H  0.22747414  0.14894286  0.70269701     0.15300
N2454       N  0.22092566  0.09389560  0.67702670     0.74400
O2455       O  0.13892517  0.14504255  0.79474283    -0.39100
O2456       O  0.17979840  0.12672019  0.82026683    -0.39000
O2457       O  0.20625543  0.10213419  0.65227860    -0.39700
O2458       O  0.25002543  0.08699516  0.67480369    -0.39800
C2459       C  0.28180671  0.08569090  0.83216076    -0.12100
C2460       C  0.28126297  0.06346570  0.80689292     0.05000
C2461       C  0.27715727  0.07451375  0.77579534    -0.07300
C2462       C  0.27505229  0.10711046  0.77036571    -0.08100
C2463       C  0.27753184  0.12995428  0.79523616    -0.02600
C2464       C  0.27987726  0.11861154  0.82677210     0.04200
N2465       N  0.28141129  0.13967555  0.85362132     0.66700
H2466       H  0.28499814  0.07745450  0.85631286     0.15600
H2467       H  0.27294798  0.11435811  0.74580659     0.15300
N2468       N  0.27799906  0.05342727  0.74893407     0.74400
O2469       O  0.25643106  0.14472050  0.86957485    -0.39100
O2470       O  0.30791519  0.14405509  0.86687152    -0.39000
O2471       O  0.25273236  0.04896135  0.73356290    -0.39700
O2472       O  0.30422934  0.04820755  0.73520962    -0.39800
C2473       C  0.09709027  0.26293608  0.81806758    -0.12100
C2474       C  0.11372039  0.28614196  0.80097745     0.05000
C2475       C  0.09792290  0.31529646  0.79452353    -0.07300
C2476       C  0.06697840  0.32061132  0.80563865    -0.08100
C2477       C  0.05078857  0.29780468  0.82331458    -0.02600
C2478       C  0.06610448  0.26862976  0.82953765     0.04200
N2479       N  0.05166066  0.24541567  0.84933424     0.66700
H2480       H  0.10852290  0.24054724  0.82348843     0.15600
H2481       H  0.05569390  0.34329156  0.80100916     0.15300
N2482       N  0.11289975  0.34031961  0.77734822     0.74400
O2483       O  0.03833960  0.22175425  0.83640122    -0.39100
O2484       O  0.06028704  0.24364279  0.87802264    -0.39000
O2485       O  0.10432778  0.34551736  0.74910736    -0.39700
O2486       O  0.12715967  0.36195594  0.79266961    -0.39800
C2487       C  0.07090211  0.24496229  0.73185980    -0.12100
C2488       C  0.09495605  0.22356924  0.72198819     0.05000
C2489       C  0.08658339  0.19161082  0.71589487    -0.07300
C2490       C  0.05462924  0.18261964  0.71708265    -0.08100
C2491       C  0.03037346  0.20507504  0.72288994    -0.02600
C2492       C  0.03889687  0.23629089  0.73170023     0.04200
N2493       N  0.01559996  0.26059180  0.73655048     0.66700
H2494       H  0.07653268  0.26947428  0.73768701     0.15600
H2495       H  0.04852392  0.15840271  0.71042456     0.15300
N2496       N  0.10951947  0.16864462  0.70547723     0.74400
O2497       O  0.00893411  0.26923648  0.76464732    -0.39100
O2498       O  0.00947466  0.27915141  0.71398191    -0.39000
O2499       O  0.11751596  0.14660513  0.72394594    -0.39700
O2500       O  0.11580280  0.16608180  0.67613876    -0.39800
C2501       C  0.36867433  0.30980669  0.75510143    -0.12100
C2502       C  0.34557364  0.30592565  0.77908332     0.05000
C2503       C  0.35559977  0.30899195  0.81118169    -0.07300
C2504       C  0.38725337  0.31498921  0.81854058    -0.08100
C2505       C  0.41050785  0.31911246  0.79508667    -0.02600
C2506       C  0.40088319  0.31639489  0.76273438     0.04200
N2507       N  0.42270711  0.32162242  0.73729732     0.66700
H2508       H  0.36184521  0.30739117  0.73033269     0.15600
H2509       H  0.39356464  0.31670186  0.84352629     0.15300
N2510       N  0.33408978  0.30613308  0.83730655     0.74400
O2511       O  0.43437327  0.29785611  0.72278521    -0.39100
O2512       O  0.42209624  0.34806824  0.72343492    -0.39000
O2513       O  0.33606038  0.28166085  0.85422677    -0.39700
O2514       O  0.32221953  0.33111186  0.84937434    -0.39800
C2515       C  0.38941813  0.22485370  0.74923451    -0.12100
C2516       C  0.36656627  0.22007223  0.72519437     0.05000
C2517       C  0.37741223  0.21462748  0.69363685    -0.07300
C2518       C  0.41008733  0.21205671  0.68758026    -0.08100
C2519       C  0.43253384  0.21453511  0.71220530    -0.02600
C2520       C  0.42186335  0.22176609  0.74317687     0.04200
N2521       N  0.44312455  0.22370966  0.76943956     0.66700
H2522       H  0.38224558  0.22970622  0.77362739     0.15600
H2523       H  0.41793962  0.20650088  0.66351698     0.15300
N2524       N  0.35602990  0.21042428  0.66757016     0.74400
O2525       O  0.44911375  0.25082993  0.78100889    -0.39100
O2526       O  0.44644241  0.19966760  0.78682935    -0.39000
O2527       O  0.34951382  0.23405697  0.65053115    -0.39700
O2528       O  0.35193653  0.18281327  0.65621053    -0.39800
C2529       C  0.17602800  0.38860259  0.71489497    -0.12100
C2530       C  0.20837601  0.38029823  0.71292834     0.05000
C2531       C  0.22985946  0.40370845  0.70224834    -0.07300
C2532       C  0.21856915  0.43444009  0.69441529    -0.08100
C2533       C  0.18597185  0.44207373  0.69621460    -0.02600
C2534       C  0.16482399  0.41854022  0.70679249     0.04200
N2535       N  0.13146450  0.42420874  0.70920297     0.66700
H2536       H  0.15857516  0.37147848  0.72269033     0.15600
H2537       H  0.23518248  0.45197334  0.68574376     0.15300
N2538       N  0.26282576  0.39675888  0.69850321     0.74400
O2539       O  0.11384429  0.41331031  0.68744650    -0.39100
O2540       O  0.11953873  0.42993139  0.73630118    -0.39000
O2541       O  0.27286670  0.38734818  0.67163917    -0.39700
O2542       O  0.28227945  0.40797136  0.71844964    -0.39800
C2543       C  0.30037095  0.40722557  0.79611761    -0.12100
C2544       C  0.26739784  0.40343031  0.79946597     0.05000
C2545       C  0.24798363  0.43117792  0.79944165    -0.07300
C2546       C  0.26184725  0.46134071  0.79790181    -0.08100
C2547       C  0.29476842  0.46497405  0.79620698    -0.02600
C2548       C  0.31408421  0.43751924  0.79430961     0.04200
N2549       N  0.34750510  0.43983249  0.78906581     0.66700
H2550       H  0.31574581  0.38654442  0.79468647     0.15600
H2551       H  0.24670732  0.48218613  0.79975168     0.15300
N2552       N  0.21420397  0.42964304  0.80218867     0.74400
O2553       O  0.36620397  0.43393185  0.81166522    -0.39100
O2554       O  0.35780863  0.43823203  0.76082477    -0.39000
O2555       O  0.20151589  0.43439760  0.82910746    -0.39700
O2556       O  0.19763389  0.43314065  0.77749135    -0.39800
C2557       C  0.27321647  0.26967060  0.61788745    -0.12100
C2558       C  0.26347689  0.24498749  0.63831305     0.05000
C2559       C  0.25788072  0.21480370  0.62364677    -0.07300
C2560       C  0.26337077  0.20977102  0.59086467    -0.08100
C2561       C  0.27451102  0.23371857  0.57065187    -0.02600
C2562       C  0.27857198  0.26444050  0.58458041     0.04200
N2563       N  0.28903823  0.29047246  0.56581334     0.66700
H2564       H  0.27689866  0.29326804  0.62780865     0.15600
H2565       H  0.25974917  0.18602573  0.58121291     0.15300
N2566       N  0.24762506  0.18810031  0.64167597     0.74400
O2567       O  0.26853918  0.30879771  0.55404437    -0.39100
O2568       O  0.31718655  0.30019944  0.56890072    -0.39000
O2569       O  0.21887808  0.17982740  0.64029120    -0.39700
O2570       O  0.26805141  0.16818129  0.65071277    -0.39800
C2571       C  0.19271602  0.32862782  0.61915916    -0.12100
C2572       C  0.18274902  0.29706995  0.62384821     0.05000
C2573       C  0.17626191  0.27743021  0.59701861    -0.07300
C2574       C  0.17836139  0.28994454  0.56658227    -0.08100
C2575       C  0.18689638  0.32159992  0.56230131    -0.02600
C2576       C  0.19499901  0.34084897  0.58843619     0.04200
N2577       N  0.20598773  0.37257018  0.58372815     0.66700
H2578       H  0.19900408  0.34369311  0.63929850     0.15600
H2579       H  0.17186263  0.27523419  0.54623209     0.15300
N2580       N  0.16585488  0.24529905  0.60006115     0.74400
O2581       O  0.18643026  0.39530512  0.58520613    -0.39100
O2582       O  0.23269644  0.37684997  0.57077052    -0.39000
O2583       O  0.13655454  0.23939131  0.59826539    -0.39700
O2584       O  0.18547301  0.22310309  0.59487226    -0.39800
C2585       C  0.73529190  0.11826063  0.81476927    -0.12100
C2586       C  0.71237281  0.13732887  0.80017780     0.05000
C2587       C  0.68365420  0.12274158  0.78961828    -0.07300
C2588       C  0.67813295  0.09080843  0.79539276    -0.08100
C2589       C  0.69978654  0.07239260  0.81216330    -0.02600
C2590       C  0.72917318  0.08601183  0.82101768     0.04200
N2591       N  0.75264987  0.06810966  0.83732430     0.66700
H2592       H  0.75766483  0.12856607  0.82220068     0.15600
H2593       H  0.65544215  0.08074636  0.78844871     0.15300
N2594       N  0.65860608  0.14007748  0.77467219     0.74400
O2595       O  0.77578036  0.05709463  0.82147681    -0.39100
O2596       O  0.75583496  0.07251221  0.86692197    -0.39000
O2597       O  0.65486432  0.13735125  0.74494180    -0.39700
O2598       O  0.63582239  0.15019739  0.79159704    -0.39800
C2599       C  0.74346514  0.09374496  0.72856856    -0.12100
C2600       C  0.76664759  0.11765695  0.72710292     0.05000
C2601       C  0.79893524  0.10851398  0.72965356    -0.07300
C2602       C  0.80698956  0.07613452  0.73065776    -0.08100
C2603       C  0.78371435  0.05235018  0.72843556    -0.02600
C2604       C  0.75159976  0.06156246  0.72848552     0.04200
N2605       N  0.72671858  0.03899870  0.72467220     0.66700
H2606       H  0.71846851  0.09974759  0.72743920     0.15600
H2607       H  0.83188387  0.06948352  0.73010290     0.15300
N2608       N  0.82404532  0.13127432  0.72974119     0.74400
O2609       O  0.70671364  0.03658694  0.74690113    -0.39100
O2610       O  0.71864574  0.03086428  0.69682610    -0.39000
O2611       O  0.83939309  0.13577263  0.70433048    -0.39700
O2612       O  0.83662253  0.13885828  0.75596477    -0.39800
C2613       C  0.67955019  0.38958886  0.75833191    -0.12100
C2614       C  0.69754186  0.37393321  0.78163191     0.05000
C2615       C  0.70956085  0.39243813  0.80732475    -0.07300
C2616       C  0.70119575  0.42419803  0.81087329    -0.08100
C2617       C  0.68030665  0.43844620  0.78996698    -0.02600
C2618       C  0.67040778  0.42158209  0.76262047     0.04200
N2619       N  0.65046047  0.43612380  0.73959297     0.66700
H2620       H  0.67128179  0.37666993  0.73749393     0.15600
H2621       H  0.70905142  0.43715101  0.83194532     0.15300
N2622       N  0.72763499  0.37916625  0.83230883     0.74400
O2623       O  0.66288583  0.44693699  0.71459197    -0.39100
O2624       O  0.62104003  0.43060773  0.74011524    -0.39000
O2625       O  0.75712449  0.38439338  0.83276944    -0.39700
O2626       O  0.71333446  0.37496343  0.85830391    -0.39800
C2627       C  0.77116731  0.41488529  0.74977815    -0.12100
C2628       C  0.77586001  0.38916580  0.72840820     0.05000
C2629       C  0.77900759  0.39571472  0.69552645    -0.07300
C2630       C  0.77978353  0.42713319  0.68546774    -0.08100
C2631       C  0.77823555  0.45253846  0.70725555    -0.02600
C2632       C  0.77246299  0.44636012  0.73957625     0.04200
N2633       N  0.77096882  0.47140253  0.76282667     0.66700
H2634       H  0.76806514  0.41080982  0.77498184     0.15600
H2635       H  0.78372115  0.43170689  0.66041406     0.15300
N2636       N  0.78260383  0.37126214  0.67185051     0.74400
O2637       O  0.74416356  0.48185719  0.77148573    -0.39100
O2638       O  0.79471796  0.47647414  0.78039914    -0.39000
O2639       O  0.76012332  0.36659694  0.65259374    -0.39700
O2640       O  0.81026210  0.36276049  0.66374323    -0.39800
C2641       C  0.78492110  0.24504299  0.90107702    -0.12100
C2642       C  0.76878279  0.27008019  0.88609025     0.05000
C2643       C  0.76101595  0.29712863  0.90506397    -0.07300
C2644       C  0.77011929  0.29916986  0.93694453    -0.08100
C2645       C  0.78794240  0.27536513  0.95120236    -0.02600
C2646       C  0.79485994  0.24759047  0.93312555     0.04200
N2647       N  0.81329736  0.22243402  0.94603988     0.66700
H2648       H  0.79094396  0.22372703  0.88759131     0.15600
H2649       H  0.76492053  0.32089428  0.95021665     0.15300
N2650       N  0.74601998  0.32431416  0.89229244     0.74400
O2651       O  0.79910039  0.19813839  0.95608615    -0.39100
O2652       O  0.84211563  0.22005950  0.93804123    -0.39000
O2653       O  0.71752033  0.32957520  0.90014335    -0.39700
O2654       O  0.76359520  0.34752100  0.88549258    -0.39800
C2655       C  0.69399528  0.23934865  0.92755119    -0.12100
C2656       C  0.68626618  0.21786884  0.90262541     0.05000
C2657       C  0.68140705  0.18555905  0.91065998    -0.07300
C2658       C  0.68181884  0.17639768  0.94276247    -0.08100
C2659       C  0.68768462  0.19843348  0.96747935    -0.02600
C2660       C  0.69479166  0.22986868  0.95942869     0.04200
N2661       N  0.70148002  0.25289477  0.98356945     0.66700
H2662       H  0.69874549  0.26408704  0.92255544     0.15600
H2663       H  0.67647629  0.15192134  0.94850796     0.15300
N2664       N  0.67546909  0.16164073  0.88697923     0.74400
O2665       O  0.72979157  0.25660845  0.99241672    -0.39100
O2666       O  0.67910830  0.26469411  0.99996346    -0.39000
O2667       O  0.69814358  0.14400361  0.87797299    -0.39700
O2668       O  0.64738296  0.15207426  0.88293767    -0.39800
C2669       C  0.85652215  0.22411664  0.71695680    -0.12100
C2670       C  0.84804012  0.21748011  0.74868480     0.05000
C2671       C  0.87216826  0.20746392  0.76966147    -0.07300
C2672       C  0.90365682  0.20393169  0.75826853    -0.08100
C2673       C  0.91139847  0.21050485  0.72635787    -0.02600
C2674       C  0.88735947  0.22132837  0.70591731     0.04200
N2675       N  0.89372955  0.23016756  0.67366839     0.66700
H2676       H  0.83903944  0.23204836  0.69988557     0.15600
H2677       H  0.92181040  0.19499259  0.77406236     0.15300
N2678       N  0.86540274  0.20063565  0.80218700     0.74400
O2679       O  0.88652502  0.21107334  0.65142721    -0.39100
O2680       O  0.89673270  0.25927202  0.66736903    -0.39000
O2681       O  0.86352811  0.17201893  0.81064317    -0.39700
O2682       O  0.87029182  0.22184871  0.82307483    -0.39800
C2683       C  0.87453722  0.29414858  0.83583680    -0.12100
C2684       C  0.86852325  0.30066402  0.80377285     0.05000
C2685       C  0.89504534  0.30353597  0.78283241    -0.07300
C2686       C  0.92615983  0.30070455  0.79438425    -0.08100
C2687       C  0.93203481  0.29585295  0.82667758    -0.02600
C2688       C  0.90571360  0.29175341  0.84737080     0.04200
N2689       N  0.91008857  0.28520073  0.88036716     0.66700
H2690       H  0.85491211  0.29084845  0.85221991     0.15600
H2691       H  0.94587241  0.30511159  0.77837211     0.15300
N2692       N  0.89124930  0.31195685  0.75021582     0.74400
O2693       O  0.90515471  0.30712984  0.90056308    -0.39100
O2694       O  0.90860202  0.25670782  0.88930732    -0.39000
O2695       O  0.89358891  0.34080688  0.74266403    -0.39700
O2696       O  0.89523495  0.29084264  0.72899717    -0.39800
C2697       C  0.60135083  0.21236697  0.74506446    -0.12100
C2698       C  0.61437668  0.23935291  0.73056241     0.05000
C2699       C  0.59408504  0.25822048  0.71153578    -0.07300
C2700       C  0.56242669  0.24846782  0.70617173    -0.08100
C2701       C  0.55075382  0.22023274  0.71932512    -0.02600
C2702       C  0.57044392  0.20254506  0.73938518     0.04200
N2703       N  0.55990301  0.17356403  0.75330702     0.66700
H2704       H  0.61557853  0.19779186  0.76053014     0.15600
H2705       H  0.54750645  0.26207730  0.69034519     0.15300
N2706       N  0.60507837  0.28641563  0.69652236     0.74400
O2707       O  0.56654202  0.14753359  0.73952374    -0.39100
O2708       O  0.55273997  0.17350921  0.78250988    -0.39000
O2709       O  0.61170144  0.28526901  0.66719512    -0.39700
O2710       O  0.59823613  0.31296154  0.70910895    -0.39800
C2711       C  0.57038356  0.27041491  0.81248788    -0.12100
C2712       C  0.59506623  0.29249385  0.80812249     0.05000
C2713       C  0.58708357  0.32312022  0.79768735    -0.07300
C2714       C  0.55499493  0.33190130  0.79447758    -0.08100
C2715       C  0.53027624  0.31027869  0.80075044    -0.02600
C2716       C  0.53845943  0.27890968  0.80889705     0.04200
N2717       N  0.51482485  0.25572313  0.81579020     0.66700
H2718       H  0.57574109  0.24633103  0.81968500     0.15600
H2719       H  0.54927580  0.35626046  0.78854934     0.15300
N2720       N  0.61131022  0.34513176  0.78933902     0.74400
O2721       O  0.51004605  0.23388472  0.79551793    -0.39100
O2722       O  0.50750336  0.25091589  0.84449977    -0.39000
O2723       O  0.62655915  0.34076446  0.76375898    -0.39700
O2724       O  0.62208797  0.36396233  0.81025804    -0.39800
C2725       C  0.78356573  0.28230775  0.64117251    -0.12100
C2726       C  0.75255170  0.29055894  0.65080010     0.05000
C2727       C  0.73176454  0.30358975  0.62824242    -0.07300
C2728       C  0.74278479  0.30905632  0.59692343    -0.08100
C2729       C  0.77429539  0.30136094  0.58801945    -0.02600
C2730       C  0.79434924  0.28709744  0.61047610     0.04200
N2731       N  0.82567524  0.27628555  0.60249166     0.66700
H2732       H  0.80019767  0.27164510  0.65757358     0.15600
H2733       H  0.72714195  0.32019699  0.57991622     0.15300
N2734       N  0.69982664  0.31140694  0.63684606     0.74400
O2735       O  0.84905859  0.29297128  0.61106561    -0.39100
O2736       O  0.83002532  0.24698427  0.59718228    -0.39000
O2737       O  0.69414001  0.33724741  0.65140655    -0.39700
O2738       O  0.67914806  0.28975896  0.63680556    -0.39800
C2739       C  0.66484455  0.21071731  0.62242634    -0.12100
C2740       C  0.69716816  0.20603321  0.62860149     0.05000
C2741       C  0.71795294  0.20175944  0.60213901    -0.07300
C2742       C  0.70604691  0.20129958  0.57093828    -0.08100
C2743       C  0.67354074  0.20433265  0.56505842    -0.02600
C2744       C  0.65299715  0.20993772  0.59125610     0.04200
N2745       N  0.61976573  0.21435920  0.58697232     0.66700
H2746       H  0.64836887  0.21477661  0.64195589     0.15600
H2747       H  0.72218569  0.19629754  0.55132523     0.15300
N2748       N  0.75108641  0.19623520  0.60624172     0.74400
O2749       O  0.60136947  0.19355608  0.59781256    -0.39100
O2750       O  0.60934272  0.24226396  0.58363616    -0.39000
O2751       O  0.76151919  0.16810131  0.60479301    -0.39700
O2752       O  0.77001281  0.21893295  0.60197275    -0.39800
C2753       C  0.80296825  0.67558769  0.10067451    -0.12100
C2754       C  0.80351923  0.69802246  0.07630949     0.05000
C2755       C  0.79844886  0.73041828  0.08449629    -0.07300
C2756       C  0.79204289  0.73916546  0.11648483    -0.08100
C2757       C  0.79142964  0.71622429  0.14058487    -0.02600
C2758       C  0.79811390  0.68423331  0.13227249     0.04200
N2759       N  0.80256456  0.66016618  0.15558728     0.66700
H2760       H  0.80716729  0.65061030  0.09547645     0.15600
H2761       H  0.78729061  0.76387819  0.12242726     0.15300
N2762       N  0.80131853  0.75482347  0.06135037     0.74400
O2763       O  0.78037657  0.64079272  0.16039687    -0.39100
O2764       O  0.83057396  0.65124155  0.16130903    -0.39000
O2765       O  0.77649546  0.76787614  0.05093361    -0.39700
O2766       O  0.82753024  0.76901069  0.05857720    -0.39800
C2767       C  0.70193122  0.80776287  0.11181619    -0.12100
C2768       C  0.70133181  0.77522563  0.11866938     0.05000
C2769       C  0.69751059  0.75309709  0.09317470    -0.07300
C2770       C  0.69499189  0.76385093  0.06181553    -0.08100
C2771       C  0.69449845  0.79641997  0.05527934    -0.02600
C2772       C  0.69776735  0.81850743  0.08070420     0.04200
N2773       N  0.69599605  0.85200342  0.07567257     0.66700
H2774       H  0.70458779  0.82519294  0.13085470     0.15600
H2775       H  0.69110040  0.74671562  0.04272275     0.15300
N2776       N  0.69335503  0.71990532  0.09888720     0.74400
O2777       O  0.66936860  0.86565661  0.07815252    -0.39100
O2778       O  0.72087388  0.86838731  0.07880038    -0.39000
O2779       O  0.66711907  0.70994537  0.10937623    -0.39700
O2780       O  0.71701413  0.70145231  0.09789843    -0.39800
C2781       C  0.74878808  0.69368702  0.39425191    -0.12100
C2782       C  0.76824866  0.71315151  0.37528502     0.05000
C2783       C  0.79519258  0.72782288  0.38985088    -0.07300
C2784       C  0.80227292  0.72220622  0.42148028    -0.08100
C2785       C  0.78491009  0.70065351  0.43913469    -0.02600
C2786       C  0.75751182  0.68676129  0.42594319     0.04200
N2787       N  0.74001135  0.66393146  0.44370542     0.66700
H2788       H  0.72812731  0.68230806  0.38393986     0.15600
H2789       H  0.82375023  0.73246066  0.43142887     0.15300
N2790       N  0.81782925  0.74617840  0.37248377     0.74400
O2791       O  0.74880025  0.63521859  0.44301465    -0.39100
O2792       O  0.72189343  0.67347249  0.46584832    -0.39000
O2793       O  0.81918879  0.77578108  0.37752083    -0.39700
O2794       O  0.84181489  0.73219624  0.36078086    -0.39800
C2795       C  0.74054812  0.80714063  0.41455375    -0.12100
C2796       C  0.71901837  0.79728100  0.39078952     0.05000
C2797       C  0.68825885  0.78757421  0.40035110    -0.07300
C2798       C  0.67959440  0.78903375  0.43265015    -0.08100
C2799       C  0.70096285  0.79962679  0.45591511    -0.02600
C2800       C  0.73161136  0.80872511  0.44668594     0.04200
N2801       N  0.75311087  0.82181281  0.46949363     0.66700
H2802       H  0.76423084  0.81477348  0.40805675     0.15600
H2803       H  0.65557552  0.78283469  0.43950667     0.15300
N2804       N  0.66545568  0.77589612  0.37804961     0.74400
O2805       O  0.77042872  0.80339720  0.48528054    -0.39100
O2806       O  0.75034131  0.85051300  0.47819749    -0.39000
O2807       O  0.66147376  0.74622994  0.37565716    -0.39700
O2808       O  0.64304074  0.79406419  0.37010924    -0.39800
C2809       C  0.88918575  0.75636058  0.28430433    -0.12100
C2810       C  0.87001463  0.77535434  0.26480170     0.05000
C2811       C  0.88445666  0.79998901  0.24716271    -0.07300
C2812       C  0.91693248  0.80622039  0.25095551    -0.08100
C2813       C  0.93542914  0.78779786  0.27128879    -0.02600
C2814       C  0.92166524  0.76210329  0.28716917     0.04200
N2815       N  0.94015020  0.74358891  0.30865549     0.66700
H2816       H  0.87885120  0.73731778  0.29799290     0.15600
H2817       H  0.92723095  0.82684458  0.23968966     0.15300
N2818       N  0.86627326  0.82070947  0.22756318     0.74400
O2819       O  0.94101601  0.75143731  0.33775403    -0.39100
O2820       O  0.96095806  0.72482335  0.29758495    -0.39000
O2821       O  0.85905163  0.84802635  0.23811536    -0.39700
O2822       O  0.86579129  0.81562125  0.19788671    -0.39800
C2823       C  0.89355355  0.70798468  0.19356076    -0.12100
C2824       C  0.88634895  0.69121866  0.22132158     0.05000
C2825       C  0.91193083  0.67909504  0.23951978    -0.07300
C2826       C  0.94346903  0.68336662  0.22943478    -0.08100
C2827       C  0.95062608  0.69921672  0.20117445    -0.02600
C2828       C  0.92519192  0.71181644  0.18328343     0.04200
N2829       N  0.93094185  0.72850002  0.15446376     0.66700
H2830       H  0.87451775  0.71835940  0.17978682     0.15600
H2831       H  0.96245196  0.67236681  0.24280376     0.15300
N2832       N  0.90634374  0.66008307  0.26695744     0.74400
O2833       O  0.92880661  0.71364716  0.12827349    -0.39100
O2834       O  0.92874680  0.75843673  0.15472665    -0.39000
O2835       O  0.90562239  0.63022106  0.26369865    -0.39700
O2836       O  0.91079683  0.67198000  0.29431380    -0.39800
C2837       C  0.71610884  0.87575871  0.23310495    -0.12100
C2838       C  0.73976866  0.85952565  0.21568877     0.05000
C2839       C  0.75682443  0.87675511  0.19242051    -0.07300
C2840       C  0.74798718  0.90846066  0.18572769    -0.08100
C2841       C  0.72263324  0.92336559  0.20197742    -0.02600
C2842       C  0.70697218  0.90667216  0.22610357     0.04200
N2843       N  0.67965759  0.91960396  0.24188942     0.66700
H2844       H  0.70359530  0.86399957  0.25204431     0.15600
H2845       H  0.75976118  0.92079906  0.16652677     0.15300
N2846       N  0.78209688  0.86248876  0.17451543     0.74400
O2847       O  0.68241245  0.93005556  0.27003680    -0.39100
O2848       O  0.65246295  0.91211642  0.23176847    -0.39000
O2849       O  0.77669749  0.85272092  0.14651190    -0.39700
O2850       O  0.81032489  0.86850175  0.18251233    -0.39800
C2851       C  0.77705553  0.90447972  0.29189637    -0.12100
C2852       C  0.79664989  0.87953111  0.30202514     0.05000
C2853       C  0.82642010  0.88727458  0.31542421    -0.07300
C2854       C  0.83486216  0.91924306  0.31982595    -0.08100
C2855       C  0.81429039  0.94422374  0.31137058    -0.02600
C2856       C  0.78547619  0.93630778  0.29633481     0.04200
N2857       N  0.76366558  0.95987923  0.28610895     0.66700
H2858       H  0.75422646  0.89948470  0.28126095     0.15600
H2859       H  0.85749016  0.92444772  0.33092433     0.15300
N2860       N  0.84777518  0.86334087  0.32632930     0.74400
O2861       O  0.76056171  0.96359296  0.25653044    -0.39100
O2862       O  0.74087828  0.96732253  0.30433408    -0.39000
O2863       O  0.87101680  0.85531718  0.30895384    -0.39700
O2864       O  0.84846916  0.85705536  0.35563260    -0.39800
C2865       C  0.70364407  0.60752649  0.26788103    -0.12100
C2866       C  0.70609140  0.62827426  0.24189017     0.05000
C2867       C  0.70070244  0.61583681  0.21092544    -0.07300
C2868       C  0.69501788  0.58364684  0.20651413    -0.08100
C2869       C  0.69210867  0.56264721  0.23206011    -0.02600
C2870       C  0.69626436  0.57496335  0.26330016     0.04200
N2871       N  0.69145647  0.55563389  0.29057233     0.66700
H2872       H  0.70768378  0.61653492  0.29181688     0.15600
H2873       H  0.69190034  0.57528765  0.18219021     0.15300
N2874       N  0.69868419  0.63550260  0.18342331     0.74400
O2875       O  0.71527417  0.54389432  0.30427600    -0.39100
O2876       O  0.66577602  0.55842600  0.30592142    -0.39000
O2877       O  0.71944431  0.63210804  0.16197348    -0.39700
O2878       O  0.67159664  0.64520125  0.17523298    -0.39800
C2879       C  0.78633975  0.58172147  0.27419311    -0.12100
C2880       C  0.78993569  0.60643793  0.29691183     0.05000
C2881       C  0.79060726  0.59816975  0.32945832    -0.07300
C2882       C  0.78923731  0.56608557  0.33809890    -0.08100
C2883       C  0.78776510  0.54155998  0.31511173    -0.02600
C2884       C  0.78581253  0.54976395  0.28284661     0.04200
N2885       N  0.78589468  0.52625047  0.25814384     0.66700
H2886       H  0.78541309  0.58688463  0.24899328     0.15600
H2887       H  0.79104877  0.56017806  0.36310244     0.15300
N2888       N  0.79335102  0.62154223  0.35420547     0.74400
O2889       O  0.76103121  0.52276456  0.24183556    -0.39100
O2890       O  0.81217808  0.51788179  0.24615174    -0.39000
O2891       O  0.76870591  0.62927256  0.36960005    -0.39700
O2892       O  0.82010897  0.62591696  0.36694922    -0.39800
C2893       C  0.59696355  0.81137517  0.30208015    -0.12100
C2894       C  0.57276660  0.78898681  0.30571890     0.05000
C2895       C  0.58085392  0.75628209  0.30391862    -0.07300
C2896       C  0.61285930  0.74711580  0.29913184    -0.08100
C2897       C  0.63687071  0.77007593  0.29647034    -0.02600
C2898       C  0.62831448  0.80263970  0.29839333     0.04200
N2899       N  0.65096932  0.82782657  0.29643402     0.66700
H2900       H  0.59182734  0.83665742  0.30242179     0.15600
H2901       H  0.61881596  0.72210388  0.29694097     0.15300
N2902       N  0.55750333  0.73212462  0.30765077     0.74400
O2903       O  0.65305634  0.84261256  0.27056978    -0.39100
O2904       O  0.65918583  0.84191434  0.32180864    -0.39000
O2905       O  0.54904041  0.71619129  0.28348364    -0.39700
O2906       O  0.55326934  0.72059651  0.33492855    -0.39800
C2907       C  0.60558409  0.67750516  0.21360302    -0.12100
C2908       C  0.61247423  0.71015146  0.21066392     0.05000
C2909       C  0.58627771  0.73154118  0.20803450    -0.07300
C2910       C  0.55505238  0.71999230  0.20611176    -0.08100
C2911       C  0.54878939  0.68745080  0.20670652    -0.02600
C2912       C  0.57416845  0.66620359  0.21185886     0.04200
N2913       N  0.56810751  0.63295657  0.21524574     0.66700
H2914       H  0.62463420  0.66056266  0.21702067     0.15600
H2915       H  0.53580679  0.73654152  0.20179937     0.15300
N2916       N  0.59066976  0.76499925  0.20485214     0.74400
O2917       O  0.57129489  0.61445916  0.19154472    -0.39100
O2918       O  0.55394030  0.62329573  0.23981887    -0.39000
O2919       O  0.58969155  0.77678525  0.17737795    -0.39700
O2920       O  0.58550646  0.78284558  0.22869410    -0.39800
C2921       C  0.79044250  0.89035105  0.76394122    -0.12100
C2922       C  0.78848738  0.86730857  0.73939407     0.05000
C2923       C  0.79138787  0.87751536  0.70753687    -0.07300
C2924       C  0.79394850  0.90944612  0.70077826    -0.08100
C2925       C  0.79584229  0.93287681  0.72464481    -0.02600
C2926       C  0.79450214  0.92302192  0.75687484     0.04200
N2927       N  0.79848916  0.94515446  0.78259666     0.66700
H2928       H  0.78811670  0.88315956  0.78852761     0.15600
H2929       H  0.79460898  0.91566695  0.67580902     0.15300
N2930       N  0.79127110  0.85587452  0.68100875     0.74400
O2931       O  0.77440436  0.95416018  0.79823668    -0.39100
O2932       O  0.82548646  0.94754650  0.79532423    -0.39000
O2933       O  0.76753785  0.85588142  0.66276001    -0.39700
O2934       O  0.81752218  0.84590098  0.67026567    -0.39800
C2935       C  0.70489808  0.91432259  0.77520046    -0.12100
C2936       C  0.69750527  0.88925513  0.79564526     0.05000
C2937       C  0.68698127  0.89691845  0.82689104    -0.07300
C2938       C  0.68321699  0.92890202  0.83632754    -0.08100
C2939       C  0.68891872  0.95391469  0.81507135    -0.02600
C2940       C  0.69997439  0.94608679  0.78420616     0.04200
N2941       N  0.70323537  0.96946996  0.76027693     0.66700
H2942       H  0.71291500  0.90937416  0.75108106     0.15600
H2943       H  0.67447262  0.93414504  0.86013591     0.15300
N2944       N  0.67776181  0.87270781  0.84859962     0.74400
O2945       O  0.73072260  0.97531610  0.75006193    -0.39100
O2946       O  0.67981873  0.97471268  0.74239746    -0.39000
O2947       O  0.69846615  0.85892913  0.86515718    -0.39700
O2948       O  0.64963038  0.86245817  0.84835389    -0.39800
C2949       C  0.87477207  0.69999729  0.78585424    -0.12100
C2950       C  0.86144877  0.72951837  0.79520763     0.05000
C2951       C  0.88128661  0.75119893  0.81176702    -0.07300
C2952       C  0.91269113  0.74246932  0.82006833    -0.08100
C2953       C  0.92509256  0.71237066  0.81171087    -0.02600
C2954       C  0.90603659  0.69153650  0.79359319     0.04200
N2955       N  0.91846180  0.66166026  0.78251118     0.66700
H2956       H  0.86087349  0.68316246  0.77223946     0.15600
H2957       H  0.92703299  0.75886609  0.83392792     0.15300
N2958       N  0.86968245  0.78184267  0.82100490     0.74400
O2959       O  0.91086202  0.63640728  0.79651169    -0.39100
O2960       O  0.94063445  0.66107104  0.76220599    -0.39000
O2961       O  0.85504993  0.78522330  0.84708783    -0.39700
O2962       O  0.86900960  0.80387396  0.80089179    -0.39800
C2963       C  0.88858059  0.81287529  0.72542822    -0.12100
C2964       C  0.88253634  0.78228211  0.71355603     0.05000
C2965       C  0.90855800  0.76200110  0.70603585    -0.07300
C2966       C  0.93962844  0.77325088  0.70900587    -0.08100
C2967       C  0.94545775  0.80473742  0.71815496    -0.02600
C2968       C  0.91966286  0.82429772  0.72754186     0.04200
N2969       N  0.92444013  0.85655626  0.73733751     0.66700
H2970       H  0.86904511  0.82836026  0.73231239     0.15600
H2971       H  0.95904389  0.75845609  0.70038130     0.15300
N2972       N  0.90399652  0.73138979  0.69159684     0.74400
O2973       O  0.91787048  0.87847666  0.71817469    -0.39100
O2974       O  0.92575552  0.86299261  0.76673958    -0.39000
O2975       O  0.90322313  0.72914603  0.66159966    -0.39700
O2976       O  0.90950094  0.70681331  0.70762487    -0.39800
C2977       C  0.70005917  0.77071479  0.88587445    -0.12100
C2978       C  0.72648631  0.78656228  0.87334844     0.05000
C2979       C  0.74473268  0.80570638  0.89412530    -0.07300
C2980       C  0.73432376  0.81095421  0.92592271    -0.08100
C2981       C  0.70637187  0.79639099  0.93726802    -0.02600
C2982       C  0.69005294  0.77526054  0.91708958     0.04200
N2983       N  0.66265333  0.75842695  0.92775268     0.66700
H2984       H  0.68658968  0.75449520  0.87118131     0.15600
H2985       H  0.74730239  0.82719846  0.94125621     0.15300
N2986       N  0.77346806  0.81989502  0.88324406     0.74400
O2987       O  0.63546920  0.76871732  0.92056098    -0.39100
O2988       O  0.66569122  0.72972860  0.93563872    -0.39000
O2989       O  0.77223648  0.84501738  0.86716632    -0.39700
O2990       O  0.79861116  0.80352670  0.88295691    -0.39800
C2991       C  0.75964888  0.71093689  0.91748414    -0.12100
C2992       C  0.78132743  0.70491394  0.89238397     0.05000
C2993       C  0.81315656  0.69774319  0.90020844    -0.07300
C2994       C  0.82180438  0.69470820  0.93208692    -0.08100
C2995       C  0.79938926  0.69749451  0.95678450    -0.02600
C2996       C  0.76822871  0.70696465  0.94939643     0.04200
N2997       N  0.74418437  0.70960963  0.97334637     0.66700
H2998       H  0.73517351  0.71691921  0.91244910     0.15600
H2999       H  0.84603136  0.68783272  0.93742956     0.15300
N3000       N  0.83673592  0.69126732  0.87644450     0.74400
O3001       O  0.73554202  0.73693049  0.98264508    -0.39100
O3002       O  0.72589411  0.68635677  0.97780091    -0.39000
O3003       O  0.85829058  0.71149852  0.87192645    -0.39700
O3004       O  0.84153884  0.66279827  0.86781407    -0.39800
C3005       C  0.60443921  0.70266185  0.75361433    -0.12100
C3006       C  0.62504222  0.71767958  0.77551073     0.05000
C3007       C  0.61201067  0.72746921  0.80563145    -0.07300
C3008       C  0.58040249  0.72170919  0.81308002    -0.08100
C3009       C  0.56047793  0.70588921  0.79199853    -0.02600
C3010       C  0.57234896  0.69655705  0.76183642     0.04200
N3011       N  0.55265564  0.67899391  0.74039232     0.66700
H3012       H  0.61336977  0.69497286  0.73055122     0.15600
H3013       H  0.57164824  0.72853164  0.83653897     0.15300
N3014       N  0.63065273  0.74172153  0.83031805     0.74400
O3015       O  0.53358380  0.69370729  0.72272514    -0.39100
O3016       O  0.54897654  0.64955891  0.74447630    -0.39000
O3017       O  0.62850184  0.77133865  0.83515860    -0.39700
O3018       O  0.64030435  0.72430060  0.85256268    -0.39800
C3019       C  0.58470782  0.79049983  0.73812152    -0.12100
C3020       C  0.60902231  0.80225139  0.71824220     0.05000
C3021       C  0.60001044  0.81442322  0.68826545    -0.07300
C3022       C  0.56777925  0.81612285  0.67994655    -0.08100
C3023       C  0.54353462  0.80639901  0.70078714    -0.02600
C3024       C  0.55251216  0.79244802  0.72967656     0.04200
N3025       N  0.52921160  0.78259045  0.75201024     0.66700
H3026       H  0.59050847  0.78051924  0.76104525     0.15600
H3027       H  0.56166520  0.82660996  0.65731454     0.15300
N3028       N  0.62268104  0.82729525  0.66663834     0.74400
O3029       O  0.51889733  0.80217347  0.77258992    -0.39100
O3030       O  0.51613661  0.75583657  0.74857577    -0.39000
O3031       O  0.63009671  0.81129743  0.64209404    -0.39700
O3032       O  0.62663294  0.85702468  0.66644875    -0.39800
C3033       C  0.73904958  0.61420500  0.70184652    -0.12100
C3034       C  0.76116770  0.63408353  0.71733801     0.05000
C3035       C  0.79101638  0.62073959  0.72638434    -0.07300
C3036       C  0.79793644  0.58921528  0.71972351    -0.08100
C3037       C  0.77657396  0.56997268  0.70364216    -0.02600
C3038       C  0.74676448  0.58217097  0.69480603     0.04200
N3039       N  0.72523313  0.56284251  0.67697534     0.66700
H3040       H  0.71621351  0.62359857  0.69474096     0.15600
H3041       H  0.82105566  0.57991953  0.72625467     0.15300
N3042       N  0.81569019  0.63886108  0.74122059     0.74400
O3043       O  0.70798217  0.54317032  0.69139589    -0.39100
O3044       O  0.72907546  0.55989901  0.64726096    -0.39000
O3045       O  0.82120270  0.63485929  0.77043552    -0.39700
O3046       O  0.83711682  0.65055478  0.72388545    -0.39800
C3047       C  0.67076048  0.61156224  0.79797383    -0.12100
C3048       C  0.70326062  0.61669283  0.80419265     0.05000
C3049       C  0.72307414  0.58980840  0.80900512    -0.07300
C3050       C  0.71029113  0.55918940  0.80838969    -0.08100
C3051       C  0.67798408  0.55438907  0.80320871    -0.02600
C3052       C  0.65815941  0.58059530  0.79735141     0.04200
N3053       N  0.62532939  0.57570476  0.79028821     0.66700
H3054       H  0.65520406  0.63152799  0.79333163     0.15600
H3055       H  0.72550375  0.53910300  0.81367057     0.15300
N3056       N  0.75599620  0.59300685  0.81637809     0.74400
O3057       O  0.60502130  0.57841458  0.81231743    -0.39100
O3058       O  0.61782110  0.56147655  0.76475834    -0.39000
O3059       O  0.76430038  0.59502200  0.84518402    -0.39700
O3060       O  0.77633782  0.58510911  0.79560682    -0.39800
C3061       C  0.72722608  0.79653158  0.62293548    -0.12100
C3062       C  0.70904315  0.77267098  0.63789417     0.05000
C3063       C  0.68482987  0.75786522  0.61969381    -0.07300
C3064       C  0.67897608  0.76755084  0.58816226    -0.08100
C3065       C  0.69685154  0.79171781  0.57406921    -0.02600
C3066       C  0.72129632  0.80607702  0.59159892     0.04200
N3067       N  0.73953927  0.83121852  0.57804915     0.66700
H3068       H  0.74646237  0.80783556  0.63561513     0.15600
H3069       H  0.65951966  0.75692041  0.57502332     0.15300
N3070       N  0.66472661  0.73426143  0.63306518     0.74400
O3071       O  0.73000880  0.85956315  0.58120831    -0.39100
O3072       O  0.76031265  0.82467000  0.55724163    -0.39000
O3073       O  0.63670612  0.74184926  0.64077254    -0.39700
O3074       O  0.67118002  0.70536206  0.62780495    -0.39800
C3075       C  0.81743337  0.67632355  0.57946671    -0.12100
C3076       C  0.80347172  0.69451933  0.55543814     0.05000
C3077       C  0.78425128  0.72063073  0.56423435    -0.07300
C3078       C  0.78085332  0.72903591  0.59638011    -0.08100
C3079       C  0.79598830  0.71164645  0.62046034    -0.02600
C3080       C  0.81401980  0.68458105  0.61160961     0.04200
N3081       N  0.83076673  0.66620364  0.63449196     0.66700
H3082       H  0.83202286  0.65587232  0.57330437     0.15600
H3083       H  0.76702904  0.74994204  0.60236566     0.15300
N3084       N  0.77043907  0.74057693  0.54081311     0.74400
O3085       O  0.81863575  0.64053988  0.64382910    -0.39100
O3086       O  0.86029043  0.67024997  0.63748484    -0.39000
O3087       O  0.74268137  0.73504976  0.53100748    -0.39700
O3088       O  0.78795767  0.75957321  0.52588908    -0.39800
loop_ 
_geom_bond_atom_site_label_1 
_geom_bond_atom_site_label_2 
_geom_bond_distance 
_geom_bond_site_symmetry_2 
_ccdc_geom_bond_type 
O1           C28   1.270       .  A
O1          Mn27   2.093       .  S
C2           O35   1.271       .  A
C2           O32   1.269       .  A
C2         C3079   1.484       .  S
O3          Mn10   2.203       .  S
O3          Mn21   2.102       .  S
O3          Mn25   2.190       .  S
O3          Mn27   2.115       .  S
O4           C14   1.260       .  A
O4          Mn38   2.051       .  S
O5           C28   1.269       .  A
O5          Mn21   2.085       .  S
O6           C33   1.256       .  A
O6          Mn25   2.147       .  S
O7          Mn38   1.965       .  S
O7          Mn27   1.970       .  S
O7           C23   1.218       .  S
C8           O11   1.260       .  A
C8         C2922   1.489       .  S
C8           O34   1.239       .  A
O9          Mn29   2.117       .  S
O9          Mn10   2.188       .  S
O9          Mn43   2.107       .  S
O9          Mn25   2.196       .  S
Mn10         O39   2.170       .  S
Mn10         O15   2.185       .  S
Mn10         O42   2.170       .  S
Mn10         O16   2.201       .  S
O11         Mn25   2.150       .  S
O12          C14   1.278       .  A
O12         Mn19   2.125       .  S
C13          O39   1.266       .  A
C13        C3062   1.510       .  S
C13          O26   1.218       .  S
C14        C2964   1.479       .  S
O15          C40   1.266       .  A
O16         Mn19   2.103       .  S
O16         Mn38   2.126       .  S
O16         Mn25   2.181       .  S
O17         Mn21   2.017       .  S
O17         Mn43   2.011       .  S
O17          C40   1.233       .  A
C18          O44   1.274       .  A
C18          O20   1.268       .  A
C18        C2936   1.495       .  S
Mn19         O32   2.080       .  S
Mn19         O34   2.031       .  S
Mn19         O26   1.983       .  S
O20         Mn43   2.086       .  S
Mn21         O37   2.108       .  S
Mn21         O31   1.954       .  S
O22          C24   1.269       .  A
O22         Mn27   2.088       .  S
C23          O41   1.262       .  A
C23        C2950   1.512       .  S
C24          O37   1.274       .  A
C24        C3048   1.493       .  S
Mn25         O41   2.154       .  S
O26         Mn29   1.983       .  S
Mn27         O45   1.999       .  S
C28        C2992   1.490       .  S
Mn29         O36   2.124       .  S
Mn29         O44   2.103       .  S
Mn29         O34   2.031       .  S
C30          O36   1.277       .  A
C30          O46   1.275       .  A
C30        C3020   1.506       .  S
O31         Mn43   1.966       .  S
O31          C33   1.212       .  S
C33        C2978   1.492       .  S
O35         Mn38   2.094       .  S
Mn38         O45   1.995       .  S
C40        C3006   1.507       .  S
O42          C47   1.263       .  A
Mn43         O46   2.104       .  S
O45          C47   1.230       .  A
C47        C3034   1.490       .  S
O48          C75   1.281       .  A
O48         Mn74   2.150       .  S
C49          O82   1.281       .  A
C49          O79   1.272       .  A
C49        C2908   1.511       .  S
O50         Mn57   2.178       .  S
O50         Mn68   2.127       .  S
O50         Mn72   2.182       .  S
O50         Mn74   2.100       .  S
O51          C61   1.267       .  A
O51         Mn85   2.078       .  S
O52          C75   1.262       .  A
O52         Mn68   2.070       .  S
O53          C80   1.253       .  A
O53         Mn72   2.091       .  S
O54         Mn85   1.975       .  S
O54         Mn74   1.953       .  S
O54          C70   1.214       .  S
C55          O58   1.255       .  A
C55        C2838   1.499       .  S
C55          O81   1.218       .  S
O56         Mn76   2.099       .  S
O56         Mn57   2.187       .  S
O56         Mn90   2.123       .  S
O56         Mn72   2.174       .  S
Mn57         O86   2.142       .  S
Mn57         O62   2.160       .  S
Mn57         O89   2.136       .  S
Mn57         O63   2.182       .  S
O58         Mn72   2.148       .  S
O59          C61   1.272       .  A
O59         Mn66   2.091       .  S
C60          O86   1.260       .  A
C60        C2897   1.479       .  S
C60          O73   1.236       .  A
C61        C2768   1.487       .  S
O62          C87   1.260       .  A
O63         Mn66   2.117       .  S
O63         Mn85   2.110       .  S
O63         Mn72   2.166       .  S
O64         Mn68   1.998       .  S
O64         Mn90   1.997       .  S
O64          C87   1.234       .  A
C65          O91   1.271       .  A
C65          O67   1.269       .  A
C65        C2852   1.488       .  S
Mn66         O79   2.103       .  S
Mn66         O73   2.010       .  S
Mn66         O81   1.985       .  S
O67         Mn90   2.090       .  S
Mn68         O84   2.118       .  S
Mn68         O78   1.994       .  S
O69          C71   1.269       .  A
O69         Mn74   2.076       .  S
C70          O88   1.255       .  A
C70        C2757   1.483       .  S
C71          O84   1.274       .  A
C71        C2880   1.496       .  S
Mn72         O88   2.129       .  S
O73         Mn76   2.015       .  S
Mn74         O92   1.979       .  S
C75        C2824   1.496       .  S
Mn76         O83   2.116       .  S
Mn76         O91   2.087       .  S
Mn76         O81   1.976       .  S
C77          O83   1.272       .  A
C77          O93   1.270       .  A
C77        C2796   1.492       .  S
O78         Mn90   1.994       .  S
O78          C80   1.227       .  S
C80        C2810   1.484       .  S
O82         Mn85   2.139       .  S
Mn85         O92   1.958       .  S
C87        C2782   1.495       .  S
O89          C94   1.261       .  A
Mn90         O93   2.094       .  S
O92          C94   1.217       .  S
C94        C2866   1.488       .  S
O95         C122   1.276       .  A
O95        Mn121   2.115       .  S
C96         O129   1.276       .  A
C96         O126   1.268       .  A
C96        C2740   1.497       .  S
O97        Mn104   2.177       .  S
O97        Mn115   2.121       .  S
O97        Mn119   2.173       .  S
O97        Mn121   2.110       .  S
O98         C108   1.273       .  A
O98        Mn132   2.096       .  S
O99         C122   1.275       .  A
O99        Mn115   2.103       .  S
O100        C127   1.261       .  A
O100       Mn119   2.120       .  S
O101       Mn132   2.006       .  S
O101       Mn121   2.001       .  S
O101        C117   1.231       .  A
C102        O105   1.256       .  A
C102       C2670   1.492       .  S
C102        O128   1.231       .  A
O103       Mn123   2.101       .  S
O103       Mn104   2.182       .  S
O103       Mn137   2.116       .  S
O103       Mn119   2.183       .  S
Mn104       O133   2.149       .  S
Mn104       O109   2.116       .  S
Mn104       O136   2.152       .  S
Mn104       O110   2.192       .  S
O105       Mn119   2.176       .  S
O106        C108   1.269       .  A
O106       Mn113   2.092       .  S
C107        O133   1.257       .  A
C107       C2726   1.482       .  S
C107        O120   1.233       .  A
C108       C2600   1.493       .  S
O109        C134   1.258       .  A
O110       Mn113   2.089       .  S
O110       Mn132   2.090       .  S
O110       Mn119   2.194       .  S
O111       Mn115   1.977       .  S
O111       Mn137   1.963       .  S
O111        C134   1.221       .  S
C112        O138   1.264       .  A
C112        O114   1.282       .  A
C112       C2684   1.499       .  S
Mn113       O126   2.094       .  S
Mn113       O128   2.017       .  S
Mn113       O120   2.017       .  S
O114       Mn137   2.137       .  S
Mn115       O131   2.141       .  S
Mn115       O125   1.984       .  S
O116        C118   1.261       .  A
O116       Mn121   2.048       .  S
C117        O135   1.262       .  A
C117       C2586   1.487       .  S
C118        O131   1.281       .  A
C118       C2712   1.492       .  S
Mn119       O135   2.148       .  S
O120       Mn123   2.021       .  S
Mn121       O139   1.974       .  S
C122       C2656   1.504       .  S
Mn123       O130   2.074       .  S
Mn123       O138   2.072       .  S
Mn123       O128   2.007       .  S
C124        O130   1.267       .  A
C124        O140   1.274       .  A
C124       C2628   1.486       .  S
O125       Mn137   1.989       .  S
O125        C127   1.225       .  S
C127       C2642   1.505       .  S
O129       Mn132   2.109       .  S
Mn132       O139   1.972       .  S
C134       C2614   1.494       .  S
O136        C141   1.255       .  A
Mn137       O140   2.102       .  S
O139        C141   1.217       .  S
C141       C2698   1.498       .  S
O142        C169   1.268       .  A
O142       Mn168   2.089       .  S
C143        O176   1.269       .  A
C143        O173   1.266       .  A
C143       C2572   1.472       .  S
O144       Mn151   2.193       .  S
O144       Mn162   2.103       .  S
O144       Mn166   2.184       .  S
O144       Mn168   2.130       .  S
O145        C155   1.267       .  A
O145       Mn179   2.068       .  S
O146        C169   1.270       .  A
O146       Mn162   2.076       .  S
O147        C174   1.260       .  A
O147       Mn166   2.167       .  S
O148       Mn179   1.965       .  S
O148       Mn168   1.964       .  S
O148        C164   1.216       .  S
C149        O152   1.260       .  A
C149       C2449   1.493       .  S
C149        O175   1.239       .  A
O150       Mn170   2.111       .  S
O150       Mn151   2.177       .  S
O150       Mn184   2.108       .  S
O150       Mn166   2.182       .  S
Mn151       O180   2.180       .  S
Mn151       O156   2.164       .  S
Mn151       O183   2.167       .  S
Mn151       O157   2.187       .  S
O152       Mn166   2.164       .  S
O153        C155   1.272       .  A
O153       Mn160   2.105       .  S
C154        O180   1.268       .  A
C154       C2558   1.532       .  S
C154        O167   1.221       .  S
C155       C2488   1.489       .  S
O156        C181   1.266       .  A
O157       Mn160   2.116       .  S
O157       Mn179   2.106       .  S
O157       Mn166   2.188       .  S
O158       Mn162   1.953       .  S
O158       Mn184   1.963       .  S
O158        C181   1.218       .  S
C159        O185   1.269       .  A
C159        O161   1.278       .  A
C159       C2463   1.504       .  S
Mn160       O173   2.073       .  S
Mn160       O175   2.006       .  S
Mn160       O167   1.978       .  S
O161       Mn184   2.138       .  S
Mn162       O178   2.119       .  S
Mn162       O172   1.973       .  S
O163        C165   1.267       .  A
O163       Mn168   2.083       .  S
C164        O182   1.261       .  A
C164       C2474   1.497       .  S
C165        O178   1.278       .  A
C165       C2544   1.495       .  S
Mn166       O182   2.133       .  S
O167       Mn170   1.991       .  S
Mn168       O186   2.015       .  S
C169       C2432   1.484       .  S
Mn170       O177   2.101       .  S
Mn170       O185   2.075       .  S
Mn170       O175   2.006       .  S
C171        O177   1.273       .  A
C171        O187   1.274       .  A
C171       C2516   1.493       .  S
O172       Mn184   1.981       .  S
O172        C174   1.224       .  S
C174       C2421   1.523       .  S
O176       Mn179   2.083       .  S
Mn179       O186   2.018       .  S
C181       C2502   1.505       .  S
O183        C188   1.262       .  A
Mn184       O187   2.091       .  S
O186        C188   1.243       .  A
C188       C2530   1.502       .  S
O189        C216   1.280       .  A
O189       Mn215   2.136       .  S
C190        O223   1.277       .  A
C190        O220   1.266       .  A
C190       C2404   1.495       .  S
O191       Mn198   2.207       .  S
O191       Mn209   2.111       .  S
O191       Mn213   2.185       .  S
O191       Mn215   2.104       .  S
O192        C202   1.272       .  A
O192       Mn226   2.101       .  S
O193        C216   1.270       .  A
O193       Mn209   2.095       .  S
O194        C221   1.258       .  A
O194       Mn213   2.148       .  S
O195       Mn226   2.055       .  S
O195       Mn215   2.050       .  S
O195        C211   1.238       .  A
C196        O199   1.257       .  A
C196       C2250   1.482       .  S
C196        O222   1.237       .  A
O197       Mn217   2.107       .  S
O197       Mn198   2.194       .  S
O197       Mn231   2.095       .  S
O197       Mn213   2.193       .  S
Mn198       O227   2.158       .  S
Mn198       O203   2.160       .  S
Mn198       O230   2.153       .  S
Mn198       O204   2.196       .  S
O199       Mn213   2.144       .  S
O200        C202   1.274       .  A
O200       Mn207   2.116       .  S
C201        O227   1.260       .  A
C201       C2390   1.500       .  S
C201        O214   1.217       .  S
C202       C2348   1.505       .  S
O203        C228   1.257       .  A
O204       Mn207   2.113       .  S
O204       Mn226   2.097       .  S
O204       Mn213   2.191       .  S
O205       Mn209   2.010       .  S
O205       Mn231   2.006       .  S
O205        C228   1.238       .  A
C206        O232   1.272       .  A
C206        O208   1.273       .  A
C206       C2267   1.496       .  S
Mn207       O220   2.082       .  S
Mn207       O222   2.009       .  S
Mn207       O214   1.964       .  S
O208       Mn231   2.091       .  S
Mn209       O225   2.112       .  S
Mn209       O219   1.966       .  S
O210        C212   1.267       .  A
O210       Mn215   2.070       .  S
C211        O229   1.261       .  A
C211       C2334   1.496       .  S
C212        O225   1.272       .  A
C212       C2292   1.493       .  S
Mn213       O229   2.149       .  S
O214       Mn217   1.970       .  S
Mn215       O233   2.050       .  S
C216       C2320   1.508       .  S
Mn217       O224   2.105       .  S
Mn217       O232   2.105       .  S
Mn217       O222   2.012       .  S
C218        O224   1.273       .  A
C218        O234   1.270       .  A
C218       C2379   1.496       .  S
O219       Mn231   1.970       .  S
O219        C221   1.216       .  S
C221       C2306   1.500       .  S
O223       Mn226   2.129       .  S
Mn226       O233   2.046       .  S
C228       C2362   1.491       .  S
O230        C235   1.259       .  A
Mn231       O234   2.086       .  S
O233        C235   1.243       .  A
C235       C2278   1.496       .  S
O236        C263   1.271       .  A
O236       Mn262   2.083       .  S
C237        O270   1.263       .  A
C237        O267   1.263       .  A
C237       C2096   1.451       .  S
O238       Mn245   2.187       .  S
O238       Mn256   2.114       .  S
O238       Mn260   2.195       .  S
O238       Mn262   2.105       .  S
O239        C249   1.271       .  A
O239       Mn273   2.092       .  S
O240        C263   1.266       .  A
O240       Mn256   2.074       .  S
O241        C268   1.262       .  A
O241       Mn260   2.166       .  S
O242       Mn273   1.948       .  S
O242       Mn262   1.955       .  S
O242        C258   1.213       .  S
C243        O246   1.269       .  A
C243       C2194   1.520       .  S
C243        O269   1.222       .  S
O244       Mn264   2.107       .  S
O244       Mn245   2.157       .  S
O244       Mn278   2.107       .  S
O244       Mn260   2.159       .  S
Mn245       O274   2.161       .  S
Mn245       O250   2.167       .  S
Mn245       O277   2.135       .  S
Mn245       O251   2.184       .  S
O246       Mn260   2.175       .  S
O247        C249   1.280       .  A
O247       Mn254   2.109       .  S
C248        O274   1.265       .  A
C248       C2082   1.539       .  S
C248        O261   1.227       .  S
C249       C2236   1.492       .  S
O250        C275   1.265       .  A
O251       Mn254   2.114       .  S
O251       Mn273   2.126       .  S
O251       Mn260   2.169       .  S
O252       Mn256   1.939       .  S
O252       Mn278   1.941       .  S
O252        C275   1.215       .  S
C253        O279   1.273       .  A
C253        O255   1.275       .  A
C253       C2208   1.490       .  S
Mn254       O267   2.074       .  S
Mn254       O269   1.970       .  S
Mn254       O261   1.973       .  S
O255       Mn278   2.104       .  S
Mn256       O272   2.119       .  S
Mn256       O266   1.974       .  S
O257        C259   1.269       .  A
O257       Mn262   2.073       .  S
C258        O276   1.260       .  A
C258       C2222   1.492       .  S
C259        O272   1.277       .  A
C259       C2127   1.493       .  S
Mn260       O276   2.134       .  S
O261       Mn264   2.011       .  S
Mn262       O280   1.936       .  S
C263       C2183   1.482       .  S
Mn264       O271   2.127       .  S
Mn264       O279   2.093       .  S
Mn264       O269   1.961       .  S
C265        O271   1.280       .  A
C265        O281   1.271       .  A
C265       C2152   1.502       .  S
O266       Mn278   1.988       .  S
O266        C268   1.226       .  S
C268       C2166   1.527       .  S
O270       Mn273   2.068       .  S
Mn273       O280   1.937       .  S
C275       C2138   1.502       .  S
O277        C282   1.256       .  A
Mn278       O281   2.085       .  S
O280        C282   1.214       .  S
C282       C2110   1.489       .  S
O283        C310   1.280       .  A
O283       Mn309   2.118       .  S
C284        O317   1.279       .  A
C284        O314   1.272       .  A
C284       C2068   1.498       .  S
O285       Mn292   2.197       .  S
O285       Mn303   2.123       .  S
O285       Mn307   2.185       .  S
O285       Mn309   2.101       .  S
O286        C296   1.266       .  A
O286       Mn320   2.057       .  S
O287        C310   1.274       .  A
O287       Mn303   2.111       .  S
O288        C315   1.262       .  A
O288       Mn307   2.157       .  S
O289       Mn320   1.956       .  S
O289       Mn309   1.961       .  S
O289        C305   1.220       .  S
C290        O293   1.266       .  A
C290       C1914   1.539       .  S
C290        O316   1.227       .  S
O291       Mn311   2.112       .  S
O291       Mn292   2.174       .  S
O291       Mn325   2.112       .  S
O291       Mn307   2.188       .  S
Mn292       O321   2.166       .  S
Mn292       O297   2.145       .  S
Mn292       O324   2.152       .  S
Mn292       O298   2.166       .  S
O293       Mn307   2.165       .  S
O294        C296   1.278       .  A
O294       Mn301   2.125       .  S
C295        O321   1.263       .  A
C295       C2057   1.503       .  S
C295        O308   1.220       .  S
C296       C1959   1.489       .  S
O297        C322   1.257       .  A
O298       Mn301   2.113       .  S
O298       Mn320   2.110       .  S
O298       Mn307   2.170       .  S
O299       Mn303   1.964       .  S
O299       Mn325   1.942       .  S
O299        C322   1.221       .  S
C300        O326   1.269       .  A
C300        O302   1.262       .  A
C300       C1928   1.467       .  S
Mn301       O314   2.093       .  S
Mn301       O316   1.996       .  S
Mn301       O308   1.959       .  S
O302       Mn325   2.058       .  S
Mn303       O319   2.055       .  S
Mn303       O313   1.919       .  S
O304        C306   1.270       .  A
O304       Mn309   2.080       .  S
C305        O323   1.267       .  A
C305       C1942   1.515       .  S
C306        O319   1.261       .  A
C306       C2043   1.459       .  S
Mn307       O323   2.178       .  S
O308       Mn311   1.948       .  S
Mn309       O327   1.968       .  S
C310       C1984   1.507       .  S
Mn311       O318   2.119       .  S
Mn311       O326   2.063       .  S
Mn311       O316   1.979       .  S
C312        O318   1.277       .  A
C312        O328   1.270       .  A
C312       C2012   1.495       .  S
O313       Mn325   1.937       .  S
O313        C315   1.211       .  S
C315       C1973   1.500       .  S
O317       Mn320   2.121       .  S
Mn320       O327   1.975       .  S
C322       C2001   1.500       .  S
O324        C329   1.262       .  A
Mn325       O328   2.079       .  S
O327        C329   1.217       .  S
C329       C2026   1.514       .  S
C330       C2180   1.461       .  S
C330        N331   1.359       .  A
C330        N335   1.368       .  A
N331        C332   1.345       .  A
C332       C1886   1.463       .  S
C332        N333   1.345       .  A
N333        C334   1.355       .  A
C334       C1900   1.490       .  S
C334        N335   1.365       .  A
C336       C2169   1.525       .  S
C336        N337   1.360       .  A
C336        N341   1.390       .  A
N337        C338   1.351       .  A
C338       C1875   1.470       .  S
C338        N339   1.349       .  A
N339        C340   1.358       .  A
C340       C1858   1.517       .  S
C340        N341   1.389       .  A
C342       C1830   1.516       .  S
C342        N343   1.379       .  A
C342        N347   1.360       .  A
N343        C344   1.383       .  A
C344       C2029   1.499       .  S
C344        N345   1.363       .  A
N345        C346   1.352       .  A
C346       C1844   1.490       .  S
C346        N347   1.355       .  A
C348       C2040   1.479       .  S
C348        N349   1.356       .  A
C348        N353   1.364       .  A
N349        C350   1.351       .  A
C350       C1802   1.471       .  S
C350        N351   1.357       .  A
N351        C352   1.353       .  A
C352       C1816   1.469       .  S
C352        N353   1.355       .  A
C354       C2631   1.466       .  S
C354        N355   1.353       .  A
C354        N359   1.360       .  A
N355        C356   1.346       .  A
C356       C1788   1.463       .  S
C356        N357   1.350       .  A
N357        C358   1.361       .  A
C358       C3037   1.462       .  S
C358        N359   1.362       .  A
C360       C3051   1.469       .  S
C360        N361   1.361       .  A
C360        N365   1.356       .  A
N361        C362   1.360       .  A
C362       C2617   1.463       .  S
C362        N363   1.359       .  A
N363        C364   1.350       .  A
C364       C1774   1.462       .  S
C364        N365   1.354       .  A
C366       C2519   1.477       .  S
C366        N367   1.367       .  A
C366        N371   1.352       .  A
N367        C368   1.368       .  A
C368       C2701   1.473       .  S
C368        N369   1.360       .  A
N369        C370   1.352       .  A
C370       C1760   1.467       .  S
C370        N371   1.348       .  A
C372       C2505   1.507       .  S
C372        N373   1.375       .  A
C372        N377   1.367       .  A
N373        C374   1.376       .  A
C374       C2715   1.481       .  S
C374        N375   1.353       .  A
N375        C376   1.345       .  A
C376       C1746   1.472       .  S
C376        N377   1.353       .  A
N378        C383   1.345       .  A
N378        C382   1.338       .  A
N378        H410   1.081       .  S
N379        C386   1.347       .  A
N379        C387   1.352       .  A
N380        C385   1.335       .  A
N380        C384   1.342       .  A
N380        H411   1.086       .  S
N381        C388   1.355       .  A
N381        C389   1.349       .  A
C382        C390   1.386       .  A
C382        C398   1.400       .  A
C383        C399   1.409       .  A
C383        C391   1.386       .  A
C384        C392   1.387       .  A
C384        C401   1.406       .  A
C385        C400   1.401       .  A
C385        C393   1.387       .  A
C386        C398   1.406       .  A
C386        C394   1.386       .  A
C387        C401   1.412       .  A
C387        C395   1.387       .  A
C388        C396   1.386       .  A
C388        C399   1.413       .  A
C389        C397   1.384       .  A
C389        C400   1.409       .  A
C390        C391   1.381       .  A
C390        H402   1.082       .  S
C391        H403   1.083       .  S
C392        C393   1.380       .  A
C392        H404   1.083       .  S
C393        H405   1.082       .  S
C394        C395   1.367       .  A
C394        H406   1.083       .  S
C395        H407   1.081       .  S
C396        C397   1.368       .  A
C396        H408   1.079       .  S
C397        H409   1.083       .  S
C398       C1732   1.473       .  S
C399       C1718   1.492       .  S
C400       C1777   1.481       .  S
C401       C1749   1.482       .  S
N412        C417   1.350       .  A
N412        C416   1.353       .  A
N412        H444   1.038       .  S
N413        C420   1.350       .  A
N413        C421   1.347       .  A
N414        C419   1.357       .  A
N414        C418   1.354       .  A
N414        H445   1.039       .  S
N415        C422   1.346       .  A
N415        C423   1.347       .  A
C416        C424   1.385       .  A
C416        C432   1.407       .  A
C417        C433   1.413       .  A
C417        C425   1.391       .  A
C418        C426   1.390       .  A
C418        C435   1.419       .  A
C419        C434   1.415       .  A
C419        C427   1.384       .  A
C420        C432   1.403       .  A
C420        C428   1.382       .  A
C421        C435   1.412       .  A
C421        C429   1.389       .  A
C422        C430   1.385       .  A
C422        C433   1.403       .  A
C423        C431   1.383       .  A
C423        C434   1.401       .  A
C424        C425   1.361       .  A
C424        H436   1.083       .  S
C425        H437   1.080       .  S
C426        C427   1.365       .  A
C426        H438   1.081       .  S
C427        H439   1.083       .  S
C428        C429   1.373       .  A
C428        H440   1.082       .  S
C429        H441   1.082       .  S
C430        C431   1.371       .  A
C430        H442   1.083       .  S
C431        H443   1.078       .  S
C432       C1872   1.486       .  S
C433       C1690   1.476       .  S
C434       C1704   1.490       .  S
C435       C1819   1.481       .  S
C446       C2376   1.490       .  S
C446        N447   1.370       .  A
C446        N451   1.355       .  A
N447        C448   1.371       .  A
C448       C2533   1.492       .  S
C448        N449   1.364       .  A
N449        C450   1.355       .  A
C450       C1676   1.470       .  S
C450        N451   1.348       .  A
C452       C2547   1.479       .  S
C452        N453   1.356       .  A
C452        N457   1.366       .  A
N453        C454   1.354       .  A
C454       C1735   1.459       .  S
C454        N455   1.350       .  A
N455        C456   1.356       .  A
C456       C2365   1.472       .  S
C456        N457   1.364       .  A
C458       C3023   1.498       .  S
C458        N459   1.373       .  A
C458        N463   1.356       .  A
N459        C460   1.371       .  A
C460       C2281   1.478       .  S
C460        N461   1.355       .  A
N461        C462   1.349       .  A
C462       C1662   1.458       .  S
C462        N463   1.349       .  A
C464       C3009   1.479       .  S
C464        N465   1.368       .  A
C464        N469   1.360       .  A
N465        C466   1.367       .  A
C466       C2295   1.476       .  S
C466        N467   1.353       .  A
N467        C468   1.348       .  A
C468       C1721   1.465       .  S
C468        N469   1.352       .  A
C470       C2785   1.465       .  S
C470        N471   1.355       .  A
C470        N475   1.359       .  A
N471        C472   1.350       .  A
C472       C1648   1.467       .  S
C472        N473   1.351       .  A
N473        C474   1.358       .  A
C474       C3076   1.480       .  S
C474        N475   1.365       .  A
C476       C3065   1.479       .  S
C476        N477   1.367       .  A
C476        N481   1.359       .  A
N477        C478   1.366       .  A
C478       C2799   1.470       .  S
C478        N479   1.350       .  A
N479        C480   1.347       .  A
C480       C1634   1.457       .  S
C480        N481   1.355       .  A
C482       C2015   1.471       .  S
C482        N483   1.371       .  A
C482        N487   1.362       .  A
N483        C484   1.363       .  A
C484       C2894   1.487       .  S
C484        N485   1.355       .  A
N485        C486   1.342       .  A
C486       C1620   1.461       .  S
C486        N487   1.348       .  A
C488       C1998   1.490       .  S
C488        N489   1.361       .  A
C488        N493   1.370       .  A
N489        C490   1.354       .  A
C490       C1707   1.466       .  S
C490        N491   1.350       .  A
N491        C492   1.355       .  A
C492       C2911   1.483       .  S
C492        N493   1.369       .  A
N494        C499   1.350       .  A
N494        C498   1.350       .  A
N494        H526   1.033       .  S
N495        C502   1.349       .  A
N495        C503   1.349       .  A
N496        C501   1.356       .  A
N496        C500   1.356       .  A
N496        H527   1.038       .  S
N497        C504   1.346       .  A
N497        C505   1.345       .  A
C498        C506   1.393       .  A
C498        C514   1.418       .  A
C499        C515   1.404       .  A
C499        C507   1.381       .  A
C500        C508   1.387       .  A
C500        C517   1.418       .  A
C501        C516   1.418       .  A
C501        C509   1.389       .  A
C502        C514   1.410       .  A
C502        C510   1.384       .  A
C503        C517   1.408       .  A
C503        C511   1.384       .  A
C504        C512   1.383       .  A
C504        C515   1.400       .  A
C505        C513   1.387       .  A
C505        C516   1.404       .  A
C506        C507   1.363       .  A
C506        H518   1.078       .  S
C507        H519   1.083       .  S
C508        C509   1.364       .  A
C508        H520   1.083       .  S
C509        H521   1.082       .  S
C510        C511   1.373       .  A
C510        H522   1.082       .  S
C511        H523   1.082       .  S
C512        C513   1.370       .  A
C512        H524   1.082       .  S
C513        H525   1.082       .  S
C514       C1623   1.485       .  S
C515       C1606   1.479       .  S
C516       C1665   1.480       .  S
C517       C1637   1.487       .  S
N528        C533   1.354       .  A
N528        C532   1.354       .  A
N528        H560   1.043       .  S
N529        C536   1.343       .  A
N529        C537   1.348       .  A
N530        C535   1.353       .  A
N530        C534   1.354       .  A
N530        H561   1.043       .  S
N531        C538   1.352       .  A
N531        C539   1.351       .  A
C532        C540   1.385       .  A
C532        C548   1.410       .  A
C533        C549   1.418       .  A
C533        C541   1.391       .  A
C534        C542   1.389       .  A
C534        C551   1.422       .  A
C535        C550   1.412       .  A
C535        C543   1.386       .  A
C536        C548   1.398       .  A
C536        C544   1.382       .  A
C537        C551   1.409       .  A
C537        C545   1.384       .  A
C538        C546   1.388       .  A
C538        C549   1.417       .  A
C539        C547   1.383       .  A
C539        C550   1.408       .  A
C540        C541   1.368       .  A
C540        H552   1.082       .  S
C541        H553   1.081       .  S
C542        C543   1.369       .  A
C542        H554   1.080       .  S
C543        H555   1.082       .  S
C544        C545   1.381       .  A
C544        H556   1.082       .  S
C545        H557   1.081       .  S
C546        C547   1.377       .  A
C546        H558   1.082       .  S
C547        H559   1.082       .  S
C548       C1592   1.486       .  S
C549       C1763   1.495       .  S
C550       C1581   1.487       .  S
C551       C1903   1.508       .  S
C562       C2393   1.485       .  S
C562        N563   1.373       .  A
C562        N567   1.357       .  A
N563        C564   1.374       .  A
C564       C2071   1.506       .  S
C564        N565   1.357       .  A
N565        C566   1.355       .  A
C566       C1564   1.472       .  S
C566        N567   1.350       .  A
C568       C2054   1.482       .  S
C568        N569   1.358       .  A
C568        N573   1.369       .  A
N569        C570   1.351       .  A
C570       C1609   1.455       .  S
C570        N571   1.347       .  A
N571        C572   1.352       .  A
C572       C2407   1.472       .  S
C572        N573   1.369       .  A
C574       C2561   1.525       .  S
C574        N575   1.365       .  A
C574        N579   1.386       .  A
N575        C576   1.356       .  A
C576       C1595   1.486       .  S
C576        N577   1.352       .  A
N577        C578   1.360       .  A
C578       C1550   1.514       .  S
C578        N579   1.387       .  A
C580       C1522   1.446       .  S
C580        N581   1.352       .  A
C580        N585   1.352       .  A
N581        C582   1.348       .  A
C582       C1536   1.455       .  S
C582        N583   1.353       .  A
N583        C584   1.357       .  A
C584       C2575   1.450       .  S
C584        N585   1.354       .  A
C586       C2883   1.478       .  S
C586        N587   1.371       .  A
C586        N591   1.352       .  A
N587        C588   1.371       .  A
C588       C2197   1.485       .  S
C588        N589   1.362       .  A
N589        C590   1.353       .  A
C590       C1508   1.462       .  S
C590        N591   1.344       .  A
C592       C2211   1.470       .  S
C592        N593   1.374       .  A
C592        N597   1.355       .  A
N593        C594   1.371       .  A
C594       C2869   1.494       .  S
C594        N595   1.357       .  A
N595        C596   1.344       .  A
C596       C1693   1.462       .  S
C596        N597   1.344       .  A
N598        C603   1.353       .  A
N598        C602   1.354       .  A
N598        H630   1.035       .  S
N599        C606   1.351       .  A
N599        C607   1.350       .  A
N600        C605   1.355       .  A
N600        C604   1.354       .  A
N600        H631   1.040       .  S
N601        C608   1.347       .  A
N601        C609   1.346       .  A
C602        C610   1.387       .  A
C602        C618   1.419       .  A
C603        C619   1.418       .  A
C603        C611   1.386       .  A
C604        C612   1.388       .  A
C604        C621   1.416       .  A
C605        C620   1.418       .  A
C605        C613   1.389       .  A
C606        C618   1.408       .  A
C606        C614   1.383       .  A
C607        C621   1.412       .  A
C607        C615   1.387       .  A
C608        C616   1.385       .  A
C608        C619   1.404       .  A
C609        C617   1.383       .  A
C609        C620   1.403       .  A
C610        C611   1.372       .  A
C610        H622   1.082       .  S
C611        H623   1.083       .  S
C612        C613   1.363       .  A
C612        H624   1.081       .  S
C613        H625   1.080       .  S
C614        C615   1.375       .  A
C614        H626   1.082       .  S
C615        H627   1.083       .  S
C616        C617   1.374       .  A
C616        H628   1.078       .  S
C617        H629   1.082       .  S
C618       C1494   1.487       .  S
C619       C1511   1.488       .  S
C620       C1651   1.486       .  S
C621       C1791   1.483       .  S
N632        C637   1.358       .  A
N632        C636   1.357       .  A
N632        H664   1.042       .  S
N633        C640   1.347       .  A
N633        C641   1.345       .  A
N634        C639   1.352       .  A
N634        C638   1.350       .  A
N634        H665   1.038       .  S
N635        C642   1.344       .  A
N635        C643   1.348       .  A
C636        C644   1.389       .  A
C636        C652   1.425       .  A
C637        C653   1.420       .  A
C637        C645   1.385       .  A
C638        C646   1.386       .  A
C638        C655   1.407       .  A
C639        C654   1.416       .  A
C639        C647   1.389       .  A
C640        C652   1.413       .  A
C640        C648   1.390       .  A
C641        C655   1.399       .  A
C641        C649   1.381       .  A
C642        C650   1.385       .  A
C642        C653   1.406       .  A
C643        C651   1.384       .  A
C643        C654   1.402       .  A
C644        C645   1.372       .  A
C644        H656   1.081       .  S
C645        H657   1.081       .  S
C646        C647   1.369       .  A
C646        H658   1.081       .  S
C647        H659   1.083       .  S
C648        C649   1.377       .  A
C648        H660   1.082       .  S
C649        H661   1.082       .  S
C650        C651   1.377       .  A
C650        H662   1.082       .  S
C651        H663   1.081       .  S
C652       C1567   1.498       .  S
C653       C1847   1.498       .  S
C654       C1539   1.484       .  S
C655       C1679   1.483       .  S
C666       C2729   1.478       .  S
C666        N667   1.358       .  A
C666        N671   1.365       .  A
N667        C668   1.352       .  A
C668       C1497   1.464       .  S
C668        N669   1.353       .  A
N669        C670   1.356       .  A
C670       C2239   1.476       .  S
C670        N671   1.367       .  A
C672       C2225   1.493       .  S
C672        N673   1.360       .  A
C672        N677   1.369       .  A
N673        C674   1.352       .  A
C674       C1578   1.471       .  S
C674        N675   1.353       .  A
N675        C676   1.357       .  A
C676       C2743   1.486       .  S
C676        N677   1.372       .  A
C678       C2754   1.488       .  S
C678        N679   1.368       .  A
C678        N683   1.361       .  A
N679        C680   1.369   1_554  A
C680       C2995   1.477       .  S
C680        N681   1.359       .  A
N681        C682   1.346   1_556  A
C682       C1483   1.467       .  S
C682        N683   1.346       .  A
C684       C2981   1.480       .  S
C684        N685   1.366       .  A
C684        N689   1.357       .  A
N685        C686   1.368   1_556  A
C686       C2771   1.476       .  S
C686        N687   1.355       .  A
N687        C688   1.352   1_554  A
C688       C1466   1.458       .  S
C688        N689   1.352       .  A
C690       C2264   1.481       .  S
C690        N691   1.371   1_455  A
C690        N695   1.353       .  A
N691        C692   1.368       .  A
C692       C2953   1.495       .  S
C692        N693   1.363       .  A
N693        C694   1.358       .  A
C694       C1452   1.471       .  S
C694        N695   1.350   1_655  A
C696       C2253   1.491       .  S
C696        N697   1.366       .  A
C696        N701   1.368       .  A
N697        C698   1.358   1_455  A
C698       C1438   1.465       .  S
C698        N699   1.345       .  A
N699        C700   1.347       .  A
C700       C2967   1.465       .  S
C700        N701   1.365   1_655  A
C702       C2939   1.493       .  S
C702        N703   1.362       .  A
C702        N707   1.371   1_565  A
N703        C704   1.354   1_565  A
C704       C1427   1.471       .  S
C704        N705   1.349       .  A
N705        C706   1.358       .  A
C706       C2589   1.479       .  S
C706        N707   1.368       .  A
C708       C2603   1.473       .  S
C708        N709   1.372   1_545  A
C708        N713   1.352       .  A
N709        C710   1.372       .  A
C710       C2925   1.497       .  S
C710        N711   1.364       .  A
N711        C712   1.345       .  A
C712       C1410   1.463   1_565  S
C712        N713   1.344   1_565  A
C714       C2418   1.505       .  S
C714        N715   1.365       .  A
C714        N719   1.384   1_556  A
N715        C716   1.355   1_556  A
C716       C1396   1.490   1_554  S
C716        N717   1.354       .  A
N717        C718   1.356       .  A
C718       C1385   1.511       .  S
C718        N719   1.379       .  A
C720       C1354   1.451       .  S
C720        N721   1.353       .  A
C720        N725   1.354       .  A
N721        C722   1.354   1_554  A
C722       C2435   1.465       .  S
C722        N723   1.361   1_556  A
N723        C724   1.364       .  A
C724       C1371   1.484       .  S
C724        N725   1.350       .  A
C726       C2124   1.503       .  S
C726        N727   1.372   1_545  A
C726        N731   1.358       .  A
N727        C728   1.371       .  A
C728       C2841   1.476       .  S
C728        N729   1.355       .  A
N729        C730   1.348       .  A
C730       C1340   1.460       .  S
C730        N731   1.352   1_565  A
C732       C2855   1.491       .  S
C732        N733   1.367   1_565  A
C732        N737   1.355       .  A
N733        C734   1.368       .  A
C734       C2113   1.477       .  S
C734        N735   1.361       .  A
N735        C736   1.354       .  A
C736       C1326   1.465       .  S
C736        N737   1.349   1_545  A
N738        C743   1.357       .  A
N738        C742   1.351       .  A
N738        H770   1.041       .  S
N739        C746   1.343       .  A
N739        C747   1.345       .  A
N740        C745   1.347       .  A
N740        C744   1.354       .  A
N740        H771   1.038   1_565  S
N741        C748   1.348       .  A
N741        C749   1.346       .  A
C742        C750   1.390       .  A
C742        C758   1.417       .  A
C743        C759   1.414       .  A
C743        C751   1.386       .  A
C744        C752   1.381       .  A
C744        C761   1.405       .  A
C745        C760   1.415   1_565  A
C745        C753   1.393       .  A
C746        C758   1.401   1_565  A
C746        C754   1.387       .  A
C747        C761   1.397   1_556  A
C747        C755   1.383       .  A
C748        C756   1.383       .  A
C748        C759   1.406   1_554  A
C749        C757   1.387       .  A
C749        C760   1.404       .  A
C750        C751   1.367       .  A
C750        H762   1.082       .  S
C751        H763   1.082       .  S
C752        C753   1.366       .  A
C752        H764   1.083       .  S
C753        H765   1.080       .  S
C754        C755   1.373       .  A
C754        H766   1.082       .  S
C755        H767   1.081       .  S
C756        C757   1.374       .  A
C756        H768   1.082       .  S
C757        H769   1.082       .  S
C758       C1284   1.472   1_545  S
C759       C1399   1.493       .  S
C760       C1315   1.470       .  S
C761       C1301   1.492       .  S
N772        C777   1.352       .  A
N772        C776   1.353       .  A
N772        H804   1.034       .  S
N773        C780   1.345       .  A
N773        C781   1.347       .  A
N774        C779   1.349       .  A
N774        C778   1.352       .  A
N774        H805   1.029       .  S
N775        C782   1.349       .  A
N775        C783   1.349   1_556  A
C776        C784   1.385       .  A
C776        C792   1.412       .  A
C777        C793   1.416   1_565  A
C777        C785   1.389       .  A
C778        C786   1.386       .  A
C778        C795   1.415   1_545  A
C779        C794   1.415       .  A
C779        C787   1.387       .  A
C780        C792   1.406   1_554  A
C780        C788   1.387       .  A
C781        C795   1.404       .  A
C781        C789   1.382       .  A
C782        C790   1.381       .  A
C782        C793   1.408       .  A
C783        C791   1.390   1_554  A
C783        C794   1.419       .  A
C784        C785   1.366       .  A
C784        H796   1.083       .  S
C785        H797   1.081       .  S
C786        C787   1.372       .  A
C786        H798   1.081       .  S
C787        H799   1.083       .  S
C788        C789   1.372       .  A
C788        H800   1.081       .  S
C789        H801   1.082       .  S
C790        C791   1.371       .  A
C790        H802   1.083       .  S
C791        H803   1.078       .  S
C792       C1469   1.482       .  S
C793       C1424   1.488       .  S
C794       C1270   1.491       .  S
C795       C1343   1.482       .  S
C806       C2141   1.490       .  S
C806        N807   1.357       .  A
C806        N811   1.371       .  A
N807        C808   1.353       .  A
C808       C1273   1.459       .  S
C808        N809   1.348       .  A
N809        C810   1.355       .  A
C810       C2659   1.487   1_554  S
C810        N811   1.374       .  A
C812       C2645   1.488       .  S
C812        N813   1.376   1_556  A
C812        N817   1.363       .  A
N813        C814   1.374       .  A
C814       C2155   1.487       .  S
C814        N815   1.347       .  A
N815        C816   1.346       .  A
C816       C1256   1.462       .  S
C816        N817   1.352   1_554  A
C818       C1931   1.454       .  S
C818        N819   1.360       .  A
C818        N823   1.353       .  A
N819        C820   1.353   1_565  A
C820       C1312   1.449       .  S
C820        N821   1.342       .  A
N821        C822   1.349       .  A
C822       C1245   1.441       .  S
C822        N823   1.347   1_545  A
C824       C1214   1.525       .  S
C824        N825   1.358       .  A
C824        N829   1.392   1_545  A
N825        C826   1.352   1_545  A
C826       C1231   1.470       .  S
C826        N827   1.353       .  A
N827        C828   1.357       .  A
C828       C1917   1.526       .  S
C828        N829   1.391       .  A
C830       C2827   1.490       .  S
C830        N831   1.374   1_655  A
C830        N835   1.356       .  A
N831        C832   1.374       .  A
C832       C1945   1.494       .  S
C832        N833   1.359       .  A
N833        C834   1.355       .  A
C834       C1200   1.469       .  S
C834        N835   1.353   1_455  A
C836       C2813   1.459       .  S
C836        N837   1.364       .  A
C836        N841   1.354       .  A
N837        C838   1.364   1_655  A
C838       C1956   1.461       .  S
C838        N839   1.349       .  A
N839        C840   1.345   1_455  A
C840       C1186   1.449       .  S
C840        N841   1.346       .  A
N842        C847   1.353       .  A
N842        C846   1.356       .  A
N842        H874   1.040       .  S
N843        C850   1.353   1_455  A
N843        C851   1.353       .  A
N844        C849   1.357   1_554  A
N844        C848   1.348       .  A
N844        H875   1.044       .  S
N845        C852   1.341       .  A
N845        C853   1.343   1_554  A
C846        C854   1.387       .  A
C846        C862   1.417       .  A
C847        C863   1.415       .  A
C847        C855   1.386       .  A
C848        C856   1.390       .  A
C848        C865   1.415       .  A
C849        C864   1.409   1_455  A
C849        C857   1.383       .  A
C850        C862   1.410       .  A
C850        C858   1.383   1_655  A
C851        C865   1.418       .  A
C851        C859   1.386       .  A
C852        C860   1.390   1_554  A
C852        C863   1.398       .  A
C853        C861   1.380       .  A
C853        C864   1.398       .  A
C854        C855   1.374       .  A
C854        H866   1.082       .  S
C855        H867   1.083       .  S
C856        C857   1.364   1_554  A
C856        H868   1.079       .  S
C857        H869   1.081       .  S
C858        C859   1.377       .  A
C858        H870   1.082       .  S
C859        H871   1.082       .  S
C860        C861   1.376       .  A
C860        H872   1.080       .  S
C861        H873   1.082       .  S
C862       C1172   1.494       .  S
C863       C1259   1.489       .  S
C864       C1158   1.495       .  S
C865       C1368   1.493       .  S
N876        C881   1.355       .  A
N876        C880   1.349       .  A
N876        H908   1.036       .  S
N877        C884   1.354       .  A
N877        C885   1.354       .  A
N878        C883   1.352       .  A
N878        C882   1.348       .  A
N878        H909   1.035       .  S
N879        C886   1.349       .  A
N879        C887   1.350       .  A
C880        C888   1.391       .  A
C880        C896   1.420   1_556  A
C881        C897   1.417       .  A
C881        C889   1.382       .  A
C882        C890   1.391       .  A
C882        C899   1.416       .  A
C883        C898   1.410   1_554  A
C883        C891   1.385       .  A
C884        C896   1.420       .  A
C884        C892   1.386       .  A
C885        C899   1.419   1_655  A
C885        C893   1.386       .  A
C886        C894   1.379       .  A
C886        C897   1.400   1_455  A
C887        C895   1.384       .  A
C887        C898   1.400       .  A
C888        C889   1.378       .  A
C888        H900   1.082       .  S
C889        H901   1.082       .  S
C890        C891   1.370       .  A
C890        H902   1.081       .  S
C891        H903   1.082       .  S
C892        C893   1.371       .  A
C892        H904   1.082       .  S
C893        H905   1.083       .  S
C894        C895   1.364       .  A
C894        H906   1.076       .  S
C895        H907   1.078       .  S
C896       C1480   1.486       .  S
C897       C1455   1.495       .  S
C898       C1147   1.478       .  S
C899       C1203   1.484       .  S
C910       C1970   1.488       .  S
C910        N911   1.367       .  A
C910        N915   1.361       .  A
N911        C912   1.370   1_554  A
C912       C2323   1.478       .  S
C912        N913   1.358       .  A
N913        C914   1.352   1_556  A
C914       C1298   1.470       .  S
C914        N915   1.355       .  A
C916       C2309   1.496       .  S
C916        N917   1.372       .  A
C916        N921   1.355       .  A
N917        C918   1.377   1_556  A
C918       C1987   1.493       .  S
C918        N919   1.358       .  A
N919        C920   1.354   1_554  A
C920       C1144   1.461       .  S
C920        N921   1.349       .  A
C922       C1130   1.526       .  S
C922        N923   1.362       .  A
C922        N927   1.388   1_455  A
N923        C924   1.356   1_455  A
C924       C1175   1.475       .  S
C924        N925   1.350       .  A
N925        C926   1.357       .  A
C926       C2085   1.513       .  S
C926        N927   1.388       .  A
C928       C1102   1.456       .  S
C928        N929   1.354   1_455  A
C928        N933   1.351       .  A
N929        C930   1.359       .  A
C930       C2099   1.470       .  S
C930        N931   1.362       .  A
N931        C932   1.356   1_655  A
C932       C1116   1.456       .  S
C932        N933   1.346       .  A
C934       C2687   1.485       .  S
C934        N935   1.369       .  A
C934        N939   1.345       .  A
N935        C936   1.373   1_655  A
C936       C2477   1.485       .  S
C936        N937   1.365       .  A
N937        C938   1.356   1_455  A
C938       C1161   1.479       .  S
C938        N939   1.351       .  A
C940       C2673   1.477       .  S
C940        N941   1.354       .  A
C940        N945   1.369       .  A
N941        C942   1.344       .  A
C942       C1091   1.453       .  S
C942        N943   1.345       .  A
N943        C944   1.356       .  A
C944       C2491   1.480   1_655  S
C944        N945   1.370       .  A
N946        C951   1.360       .  A
N946        C950   1.350       .  A
N946        H978   1.037       .  S
N947        C954   1.341       .  A
N947        C955   1.349       .  A
N948        C953   1.347   1_655  A
N948        C952   1.351       .  A
N948        H979   1.034   1_655  S
N949        C956   1.349   1_545  A
N949        C957   1.348       .  A
C950        C958   1.395       .  A
C950        C966   1.427       .  A
C951        C967   1.422       .  A
C951        C959   1.381       .  A
C952        C960   1.383       .  A
C952        C969   1.409   1_545  A
C953        C968   1.417       .  A
C953        C961   1.392   1_455  A
C954        C966   1.408   1_655  A
C954        C962   1.389       .  A
C955        C969   1.403       .  A
C955        C963   1.382       .  A
C956        C964   1.381       .  A
C956        C967   1.395       .  A
C957        C965   1.374       .  A
C957        C968   1.404       .  A
C958        C959   1.374       .  A
C958        H970   1.080       .  S
C959        H971   1.083       .  S
C960        C961   1.371       .  A
C960        H972   1.082       .  S
C961        H973   1.080       .  S
C962        C963   1.371       .  A
C962        H974   1.083       .  S
C963        H975   1.081       .  S
C964        C965   1.363   1_565  A
C964        H976   1.083       .  S
C965        H977   1.060       .  S
C966       C1189   1.474   1_455  S
C967       C1228   1.496       .  S
C968       C1119   1.471       .  S
C969       C1329   1.487   1_565  S
N980        C985   1.353       .  A
N980        C984   1.352       .  A
N980       H1012   1.037       .  S
N981        C988   1.345       .  A
N981        C989   1.348       .  A
N982        C987   1.353   1_565  A
N982        C986   1.350       .  A
N982       H1013   1.039   1_465  S
N983        C990   1.350   1_455  A
N983        C991   1.347       .  A
C984        C992   1.387       .  A
C984       C1000   1.414       .  A
C985       C1001   1.414       .  A
C985        C993   1.387       .  A
C986        C994   1.387       .  A
C986       C1003   1.412   1_455  A
C987       C1002   1.419       .  A
C987        C995   1.389   1_545  A
C988       C1000   1.405   1_565  A
C988        C996   1.387       .  A
C989       C1003   1.406       .  A
C989        C997   1.383       .  A
C990        C998   1.386   1_655  A
C990       C1001   1.407       .  A
C991        C999   1.383       .  A
C991       C1002   1.412       .  A
C992        C993   1.372       .  A
C992       H1004   1.083       .  S
C993       H1005   1.082       .  S
C994        C995   1.366       .  A
C994       H1006   1.082       .  S
C995       H1007   1.081       .  S
C996        C997   1.373       .  A
C996       H1008   1.080       .  S
C997       H1009   1.082       .  S
C998        C999   1.376       .  A
C998       H1010   1.082       .  S
C999       H1011   1.082       .  S
C1000      C1413   1.489       .  S
C1001      C1088   1.482       .  S
C1002      C1074   1.480       .  S
C1003      C1441   1.479       .  S
C1014      C2460   1.478       .  S
C1014      N1015   1.369       .  A
C1014      N1019   1.358       .  A
N1015      C1016   1.366   1_545  A
C1016      C2337   1.469       .  S
C1016      N1017   1.353       .  A
N1017      C1018   1.345       .  A
C1018      C1287   1.461       .  S
C1018      N1019   1.352   1_565  A
C1020      C2351   1.494       .  S
C1020      N1021   1.361   1_565  A
C1020      N1025   1.369   1_565  A
N1021      C1022   1.357       .  A
C1022      C1077   1.469       .  S
C1022      N1023   1.347       .  A
N1023      C1024   1.352       .  A
C1024      C2446   1.469       .  S
C1024      N1025   1.368       .  A
O1026      C1053   1.267       .  A
O1026     Mn1052   2.080       .  S
C1027      O1060   1.269       .  A
C1027      O1057   1.263       .  A
C1027      C1242   1.463       .  S
O1028     Mn1035   2.160       .  S
O1028     Mn1046   2.107       .  S
O1028     Mn1050   2.172       .  S
O1028     Mn1052   2.124       .  S
O1029      C1039   1.270       .  A
O1029     Mn1063   2.082       .  S
O1030      C1053   1.271       .  A
O1030     Mn1046   2.067       .  S
O1031      C1058   1.267       .  A
O1031     Mn1050   2.167       .  S
O1032     Mn1063   1.994       .  S
O1032     Mn1052   1.970       .  S
O1032      C1048   1.235       .  S
C1033      O1036   1.270       .  A
C1033      C1861   1.534       .  S
C1033      O1059   1.226       .  S
O1034     Mn1054   2.135       .  S
O1034     Mn1035   2.168       .  S
O1034     Mn1068   2.107       .  S
O1034     Mn1050   2.160       .  S
Mn1035     O1064   2.150       .  S
Mn1035     O1040   2.167       .  S
Mn1035     O1067   2.166       .  S
Mn1035     O1041   2.167       .  S
O1036     Mn1050   2.173       .  S
O1037      C1039   1.276       .  A
O1037     Mn1044   2.098       .  S
C1038      O1064   1.264       .  A
C1038      C1382   1.526       .  S
C1038      O1051   1.227       .  S
C1039      C1889   1.484       .  S
O1040      C1065   1.266       .  A
O1041     Mn1044   2.111       .  S
O1041     Mn1063   2.125       .  S
O1041     Mn1050   2.151       .  S
O1042     Mn1046   1.941       .  S
O1042     Mn1068   1.979       .  S
O1042      C1065   1.223       .  S
C1043      O1069   1.268       .  A
C1043      O1045   1.272       .  A
C1043      C1805   1.466       .  S
Mn1044     O1057   2.055       .  S
Mn1044     O1059   1.954       .  S
Mn1044     O1051   1.983       .  S
O1045     Mn1068   2.079       .  S
Mn1046     O1062   2.088       .  S
Mn1046     O1056   1.986       .  S
O1047      C1049   1.268       .  A
O1047     Mn1052   2.074       .  S
C1048      O1066   1.269       .  A
C1048      C1553   1.537       .  S
C1049      O1062   1.272       .  A
C1049      C1105   1.476       .  S
Mn1050     O1066   2.165       .  S
O1051     Mn1054   1.941       .  S
Mn1052     O1070   1.979       .  S
C1053      C1525   1.461       .  S
Mn1054     O1061   2.090       .  S
Mn1054     O1069   2.070       .  S
Mn1054     O1059   1.993       .  S
C1055      O1061   1.269       .  A
C1055      O1071   1.270       .  A
C1055      C1357   1.464       .  S
O1056     Mn1068   1.952       .  S
O1056      C1058   1.222       .  S
C1058      C1833   1.523       .  S
O1060     Mn1063   2.068       .  S
Mn1063     O1070   1.959       .  S
C1065      C1133   1.528       .  S
O1067      C1072   1.265       .  A
Mn1068     O1071   2.064       .  S
O1070      C1072   1.234       .  S
C1072      C1217   1.538       .  S
C1073      C1074   1.398       .  A
C1073      C1078   1.394       .  A
C1073      H1080   1.085       .  S
C1074      C1075   1.412       .  A
C1075      C1076   1.398       .  A
C1075      N1082   1.427       .  S
C1076      C1077   1.400       .  A
C1076      H1081   1.084       .  S
C1077      C1078   1.411       .  A
C1078      N1079   1.427       .  S
N1079      O1083   1.260       .  A
N1079      O1084   1.262       .  A
N1082      O1086   1.262   1_545  A
N1082      O1085   1.262       .  A
C1087      C1088   1.405       .  A
C1087      C1092   1.384       .  A
C1087      H1094   1.084       .  S
C1088      C1089   1.408       .  A
C1089      C1090   1.402       .  A
C1089      N1096   1.428       .  S
C1090      C1091   1.403       .  A
C1090      H1095   1.084       .  S
C1091      C1092   1.400       .  A
C1092      N1093   1.429       .  S
N1093      O1097   1.262       .  A
N1093      O1098   1.262   1_655  A
N1096      O1100   1.262       .  A
N1096      O1099   1.262       .  A
C1101      C1102   1.398       .  A
C1101      C1106   1.393       .  A
C1101      H1108   1.085       .  S
C1102      C1103   1.403       .  A
C1103      C1104   1.392       .  A
C1103      N1110   1.428       .  S
C1104      C1105   1.408       .  A
C1104      H1109   1.083       .  S
C1105      C1106   1.415       .  A
C1106      N1107   1.429       .  S
N1107      O1111   1.262       .  A
N1107      O1112   1.261       .  A
N1110      O1114   1.261       .  A
N1110      O1113   1.262       .  A
C1115      C1116   1.395       .  A
C1115      C1120   1.390       .  A
C1115      H1122   1.085       .  S
C1116      C1117   1.407       .  A
C1117      C1118   1.397       .  A
C1117      N1124   1.426       .  S
C1118      C1119   1.399       .  A
C1118      H1123   1.083       .  S
C1119      C1120   1.414       .  A
C1120      N1121   1.428       .  S
N1121      O1125   1.261       .  A
N1121      O1126   1.261       .  A
N1124      O1128   1.261       .  A
N1124      O1127   1.262   1_455  A
C1129      C1130   1.417       .  A
C1129      C1134   1.432       .  A
C1129      H1136   1.083       .  S
C1130      C1131   1.420       .  A
C1131      C1132   1.408       .  A
C1131      N1138   1.429       .  S
C1132      C1133   1.408       .  A
C1132      H1137   1.083       .  S
C1133      C1134   1.419       .  A
C1134      N1135   1.427       .  S
N1135      O1139   1.261       .  A
N1135      O1140   1.262       .  A
N1138      O1142   1.262       .  A
N1138      O1141   1.262       .  A
C1143      C1144   1.395       .  A
C1143      C1148   1.395       .  A
C1143      H1150   1.084       .  S
C1144      C1145   1.411       .  A
C1145      C1146   1.399       .  A
C1145      N1152   1.429       .  S
C1146      C1147   1.399       .  A
C1146      H1151   1.084       .  S
C1147      C1148   1.415       .  A
C1148      N1149   1.429       .  S
N1149      O1153   1.261   1_556  A
N1149      O1154   1.262       .  A
N1152      O1156   1.261       .  A
N1152      O1155   1.262       .  A
C1157      C1158   1.409   1_455  A
C1157      C1162   1.401       .  A
C1157      H1164   1.081       .  S
C1158      C1159   1.414       .  A
C1159      C1160   1.384       .  A
C1159      N1166   1.427       .  S
C1160      C1161   1.399       .  A
C1160      H1165   1.080       .  S
C1161      C1162   1.411   1_655  A
C1162      N1163   1.427       .  S
N1163      O1167   1.262       .  A
N1163      O1168   1.262       .  A
N1166      O1170   1.261       .  A
N1166      O1169   1.262       .  A
C1171      C1172   1.404       .  A
C1171      C1176   1.394       .  A
C1171      H1178   1.085       .  S
C1172      C1173   1.413       .  A
C1173      C1174   1.410       .  A
C1173      N1180   1.428       .  S
C1174      C1175   1.407       .  A
C1174      H1179   1.084       .  S
C1175      C1176   1.403       .  A
C1176      N1177   1.427       .  S
N1177      O1181   1.262       .  A
N1177      O1182   1.261   1_655  A
N1180      O1184   1.262       .  A
N1180      O1183   1.262       .  A
C1185      C1186   1.393       .  A
C1185      C1190   1.389       .  A
C1185      H1192   1.085       .  S
C1186      C1187   1.408       .  A
C1187      C1188   1.391   1_655  A
C1187      N1194   1.428   1_655  S
C1188      C1189   1.396   1_455  A
C1188      H1193   1.084       .  S
C1189      C1190   1.418       .  A
C1190      N1191   1.431       .  S
N1191      O1195   1.262       .  A
N1191      O1196   1.262       .  A
N1194      O1198   1.261   1_455  A
N1194      O1197   1.262       .  A
C1199      C1200   1.409       .  A
C1199      C1204   1.406       .  A
C1199      H1206   1.084       .  S
C1200      C1201   1.406       .  A
C1201      C1202   1.391       .  A
C1201      N1208   1.428   1_455  S
C1202      C1203   1.400       .  A
C1202      H1207   1.083       .  S
C1203      C1204   1.403       .  A
C1204      N1205   1.427       .  S
N1205      O1209   1.262       .  A
N1205      O1210   1.261       .  A
N1208      O1212   1.261       .  A
N1208      O1211   1.262   1_655  A
C1213      C1214   1.410       .  A
C1213      C1218   1.429       .  A
C1213      H1220   1.083       .  S
C1214      C1215   1.421       .  A
C1215      C1216   1.412       .  A
C1215      N1222   1.429       .  S
C1216      C1217   1.409       .  A
C1216      H1221   1.083       .  S
C1217      C1218   1.430       .  A
C1218      N1219   1.427       .  S
N1219      O1223   1.260       .  A
N1219      O1224   1.261       .  A
N1222      O1226   1.262       .  A
N1222      O1225   1.262       .  A
C1227      C1228   1.406       .  A
C1227      C1232   1.390       .  A
C1227      H1234   1.083       .  S
C1228      C1229   1.415       .  A
C1229      C1230   1.405   1_565  A
C1229      N1236   1.429   1_565  S
C1230      C1231   1.404   1_545  A
C1230      H1235   1.084       .  S
C1231      C1232   1.404       .  A
C1232      N1233   1.427       .  S
N1233      O1237   1.262       .  A
N1233      O1238   1.262       .  A
N1236      O1240   1.262       .  A
N1236      O1239   1.262   1_545  A
C1241      C1242   1.406       .  A
C1241      C1246   1.384       .  A
C1241      H1248   1.083       .  S
C1242      C1243   1.414       .  A
C1243      C1244   1.387       .  A
C1243      N1250   1.431       .  S
C1244      C1245   1.398       .  A
C1244      H1249   1.085       .  S
C1245      C1246   1.401       .  A
C1246      N1247   1.429       .  S
N1247      O1251   1.262       .  A
N1247      O1252   1.261       .  A
N1250      O1254   1.262       .  A
N1250      O1253   1.262       .  A
C1255      C1256   1.394       .  A
C1255      C1260   1.391       .  A
C1255      H1262   1.085       .  S
C1256      C1257   1.411       .  A
C1257      C1258   1.401       .  A
C1257      N1264   1.428   1_554  S
C1258      C1259   1.401       .  A
C1258      H1263   1.083       .  S
C1259      C1260   1.421       .  A
C1260      N1261   1.433       .  S
N1261      O1265   1.262       .  A
N1261      O1266   1.262       .  A
N1264      O1268   1.262       .  A
N1264      O1267   1.262   1_556  A
C1269      C1270   1.404       .  A
C1269      C1274   1.402       .  A
C1269      H1276   1.084       .  S
C1270      C1271   1.423       .  A
C1271      C1272   1.388       .  A
C1271      N1278   1.433       .  S
C1272      C1273   1.390       .  A
C1272      H1277   1.085       .  S
C1273      C1274   1.410       .  A
C1274      N1275   1.428       .  S
N1275      O1279   1.262   1_554  A
N1275      O1280   1.262       .  A
N1278      O1282   1.261       .  A
N1278      O1281   1.260       .  A
C1283      C1284   1.395   1_545  A
C1283      C1288   1.394       .  A
C1283      H1290   1.084       .  S
C1284      C1285   1.412       .  A
C1285      C1286   1.392       .  A
C1285      N1292   1.429       .  S
C1286      C1287   1.399       .  A
C1286      H1291   1.085       .  S
C1287      C1288   1.410   1_565  A
C1288      N1289   1.426       .  S
N1289      O1293   1.262       .  A
N1289      O1294   1.262       .  A
N1292      O1296   1.262       .  A
N1292      O1295   1.261       .  A
C1297      C1298   1.391       .  A
C1297      C1302   1.390       .  A
C1297      H1304   1.085       .  S
C1298      C1299   1.415       .  A
C1299      C1300   1.406       .  A
C1299      N1306   1.428   1_554  S
C1300      C1301   1.402       .  A
C1300      H1305   1.083   1_554  S
C1301      C1302   1.420       .  A
C1302      N1303   1.429       .  S
N1303      O1307   1.261       .  A
N1303      O1308   1.260       .  A
N1306      O1310   1.262       .  A
N1306      O1309   1.262   1_556  A
C1311      C1312   1.404       .  A
C1311      C1316   1.400       .  A
C1311      H1318   1.084       .  S
C1312      C1313   1.403       .  A
C1313      C1314   1.384       .  A
C1313      N1320   1.432       .  S
C1314      C1315   1.401       .  A
C1314      H1319   1.084       .  S
C1315      C1316   1.400       .  A
C1316      N1317   1.425       .  S
N1317      O1321   1.262       .  A
N1317      O1322   1.260       .  A
N1320      O1324   1.262       .  A
N1320      O1323   1.262       .  A
C1325      C1326   1.404       .  A
C1325      C1330   1.404       .  A
C1325      H1332   1.084       .  S
C1326      C1327   1.403       .  A
C1327      C1328   1.396       .  A
C1327      N1334   1.430       .  S
C1328      C1329   1.406       .  A
C1328      H1333   1.081       .  S
C1329      C1330   1.403       .  A
C1330      N1331   1.424       .  S
N1331      O1335   1.261       .  A
N1331      O1336   1.261   1_545  A
N1334      O1338   1.262   1_545  A
N1334      O1337   1.262       .  A
C1339      C1340   1.403       .  A
C1339      C1344   1.401       .  A
C1339      H1346   1.084       .  S
C1340      C1341   1.402       .  A
C1341      C1342   1.391       .  A
C1341      N1348   1.429       .  S
C1342      C1343   1.403       .  A
C1342      H1347   1.080       .  S
C1343      C1344   1.406       .  A
C1344      N1345   1.426       .  S
N1345      O1349   1.261       .  A
N1345      O1350   1.262       .  A
N1348      O1352   1.262       .  A
N1348      O1351   1.262       .  A
C1353      C1354   1.398       .  A
C1353      C1358   1.390       .  A
C1353      H1360   1.085       .  S
C1354      C1355   1.406       .  A
C1355      C1356   1.391       .  A
C1355      N1362   1.429       .  S
C1356      C1357   1.403       .  A
C1356      H1361   1.084       .  S
C1357      C1358   1.412       .  A
C1358      N1359   1.430       .  S
N1359      O1363   1.261       .  A
N1359      O1364   1.262       .  A
N1362      O1366   1.260       .  A
N1362      O1365   1.261       .  A
C1367      C1368   1.399       .  A
C1367      C1372   1.393       .  A
C1367      H1374   1.083       .  S
C1368      C1369   1.416       .  A
C1369      C1370   1.400       .  A
C1369      N1376   1.426       .  S
C1370      C1371   1.401       .  A
C1370      H1375   1.084       .  S
C1371      C1372   1.417       .  A
C1372      N1373   1.425       .  S
N1373      O1377   1.262       .  A
N1373      O1378   1.261       .  A
N1376      O1380   1.261   1_554  A
N1376      O1379   1.261       .  A
C1381      C1382   1.414       .  A
C1381      C1386   1.427       .  A
C1381      H1388   1.083       .  S
C1382      C1383   1.419       .  A
C1383      C1384   1.401       .  A
C1383      N1390   1.420       .  S
C1384      C1385   1.398       .  A
C1384      H1389   1.085       .  S
C1385      C1386   1.419       .  A
C1386      N1387   1.425       .  S
N1387      O1391   1.261       .  A
N1387      O1392   1.261       .  A
N1390      O1394   1.261       .  A
N1390      O1393   1.261       .  A
C1395      C1396   1.402   1_554  A
C1395      C1400   1.393       .  A
C1395      H1402   1.084       .  S
C1396      C1397   1.418       .  A
C1397      C1398   1.406       .  A
C1397      N1404   1.425       .  S
C1398      C1399   1.401       .  A
C1398      H1403   1.084       .  S
C1399      C1400   1.411   1_556  A
C1400      N1401   1.426       .  S
N1401      O1405   1.262       .  A
N1401      O1406   1.262       .  A
N1404      O1408   1.262       .  A
N1404      O1407   1.262       .  A
C1409      C1410   1.392       .  A
C1409      C1414   1.386       .  A
C1409      H1416   1.085       .  S
C1410      C1411   1.411   1_545  A
C1411      C1412   1.404       .  A
C1411      N1418   1.428       .  S
C1412      C1413   1.404   1_565  A
C1412      H1417   1.083       .  S
C1413      C1414   1.418       .  A
C1414      N1415   1.430       .  S
N1415      O1419   1.261       .  A
N1415      O1420   1.262       .  A
N1418      O1422   1.262       .  A
N1418      O1421   1.262       .  A
C1423      C1424   1.397       .  A
C1423      C1428   1.402       .  A
C1423      H1430   1.084       .  S
C1424      C1425   1.413       .  A
C1425      C1426   1.395       .  A
C1425      N1432   1.426       .  S
C1426      C1427   1.396       .  A
C1426      H1431   1.084       .  S
C1427      C1428   1.414       .  A
C1428      N1429   1.425       .  S
N1429      O1433   1.261   1_545  A
N1429      O1434   1.262       .  A
N1432      O1436   1.261       .  A
N1432      O1435   1.261       .  A
C1437      C1438   1.398       .  A
C1437      C1442   1.387       .  A
C1437      H1444   1.084       .  S
C1438      C1439   1.408   1_655  A
C1439      C1440   1.405   1_455  A
C1439      N1446   1.427       .  S
C1440      C1441   1.404       .  A
C1440      H1445   1.083   1_655  S
C1441      C1442   1.408       .  A
C1442      N1443   1.429       .  S
N1443      O1447   1.261       .  A
N1443      O1448   1.262       .  A
N1446      O1450   1.260       .  A
N1446      O1449   1.262       .  A
C1451      C1452   1.406   1_455  A
C1451      C1456   1.404       .  A
C1451      H1458   1.084       .  S
C1452      C1453   1.401       .  A
C1453      C1454   1.389       .  A
C1453      N1460   1.426       .  S
C1454      C1455   1.409       .  A
C1454      H1459   1.083       .  S
C1455      C1456   1.414   1_655  A
C1456      N1457   1.430       .  S
N1457      O1461   1.262       .  A
N1457      O1462   1.262       .  A
N1460      O1464   1.261       .  A
N1460      O1463   1.262       .  A
C1465      C1466   1.390       .  A
C1465      C1470   1.386       .  A
C1465      H1472   1.085       .  S
C1466      C1467   1.411       .  A
C1467      C1468   1.403       .  A
C1467      N1474   1.426       .  S
C1468      C1469   1.400       .  A
C1468      H1473   1.084       .  S
C1469      C1470   1.415       .  A
C1470      N1471   1.427       .  S
N1471      O1475   1.260   1_556  A
N1471      O1476   1.262       .  A
N1474      O1478   1.262       .  A
N1474      O1477   1.262   1_556  A
C1479      C1480   1.401       .  A
C1479      C1484   1.389       .  A
C1479      H1486   1.085       .  S
C1480      C1481   1.412       .  A
C1481      C1482   1.409       .  A
C1481      N1488   1.428       .  S
C1482      C1483   1.406       .  A
C1482      H1487   1.084       .  S
C1483      C1484   1.402       .  A
C1484      N1485   1.427       .  S
N1485      O1489   1.262       .  A
N1485      O1490   1.261   1_554  A
N1488      O1492   1.262   1_554  A
N1488      O1491   1.262       .  A
C1493      C1494   1.403       .  A
C1493      C1498   1.389       .  A
C1493      H1500   1.085       .  S
C1494      C1495   1.412       .  A
C1495      C1496   1.407       .  A
C1495      N1502   1.428       .  S
C1496      C1497   1.405       .  A
C1496      H1501   1.084       .  S
C1497      C1498   1.401       .  A
C1498      N1499   1.427       .  S
N1499      O1503   1.261       .  A
N1499      O1504   1.261       .  A
N1502      O1506   1.262       .  A
N1502      O1505   1.262       .  A
C1507      C1508   1.404       .  A
C1507      C1512   1.405       .  A
C1507      H1514   1.084       .  S
C1508      C1509   1.400       .  A
C1509      C1510   1.390       .  A
C1509      N1516   1.428       .  S
C1510      C1511   1.407       .  A
C1510      H1515   1.085       .  S
C1511      C1512   1.411       .  A
C1512      N1513   1.429       .  S
N1513      O1517   1.261       .  A
N1513      O1518   1.262       .  A
N1516      O1520   1.262       .  A
N1516      O1519   1.261       .  A
C1521      C1522   1.398       .  A
C1521      C1526   1.392       .  A
C1521      H1528   1.085       .  S
C1522      C1523   1.402       .  A
C1523      C1524   1.389       .  A
C1523      N1530   1.428       .  S
C1524      C1525   1.401       .  A
C1524      H1529   1.084       .  S
C1525      C1526   1.414       .  A
C1526      N1527   1.430       .  S
N1527      O1531   1.261       .  A
N1527      O1532   1.262       .  A
N1530      O1534   1.262       .  A
N1530      O1533   1.262       .  A
C1535      C1536   1.406       .  A
C1535      C1540   1.402       .  A
C1535      H1542   1.084       .  S
C1536      C1537   1.397       .  A
C1537      C1538   1.386       .  A
C1537      N1544   1.429       .  S
C1538      C1539   1.406       .  A
C1538      H1543   1.079       .  S
C1539      C1540   1.405       .  A
C1540      N1541   1.427       .  S
N1541      O1545   1.262       .  A
N1541      O1546   1.262       .  A
N1544      O1548   1.262       .  A
N1544      O1547   1.261       .  A
C1549      C1550   1.408       .  A
C1549      C1554   1.426       .  A
C1549      H1556   1.083       .  S
C1550      C1551   1.414       .  A
C1551      C1552   1.415       .  A
C1551      N1558   1.432       .  S
C1552      C1553   1.414       .  A
C1552      H1557   1.083       .  S
C1553      C1554   1.427       .  A
C1554      N1555   1.427       .  S
N1555      O1559   1.261       .  A
N1555      O1560   1.262       .  A
N1558      O1562   1.262       .  A
N1558      O1561   1.262       .  A
C1563      C1564   1.402       .  A
C1563      C1568   1.398       .  A
C1563      H1570   1.084       .  S
C1564      C1565   1.409       .  A
C1565      C1566   1.393       .  A
C1565      N1572   1.428       .  S
C1566      C1567   1.407       .  A
C1566      H1571   1.081       .  S
C1567      C1568   1.411       .  A
C1568      N1569   1.427       .  S
N1569      O1573   1.262       .  A
N1569      O1574   1.262       .  A
N1572      O1576   1.262       .  A
N1572      O1575   1.261       .  A
C1577      C1578   1.404       .  A
C1577      C1582   1.407       .  A
C1577      H1584   1.084       .  S
C1578      C1579   1.402       .  A
C1579      C1580   1.390       .  A
C1579      N1586   1.424       .  S
C1580      C1581   1.399       .  A
C1580      H1585   1.085       .  S
C1581      C1582   1.412       .  A
C1582      N1583   1.425       .  S
N1583      O1587   1.262       .  A
N1583      O1588   1.260       .  A
N1586      O1590   1.258       .  A
N1586      O1589   1.261       .  A
C1591      C1592   1.397       .  A
C1591      C1596   1.403       .  A
C1591      H1598   1.084       .  S
C1592      C1593   1.415       .  A
C1593      C1594   1.404       .  A
C1593      N1600   1.433       .  S
C1594      C1595   1.405       .  A
C1594      H1599   1.084       .  S
C1595      C1596   1.414       .  A
C1596      N1597   1.426       .  S
N1597      O1601   1.262       .  A
N1597      O1602   1.262       .  A
N1600      O1604   1.262       .  A
N1600      O1603   1.260       .  A
C1605      C1606   1.397       .  A
C1605      C1610   1.400       .  A
C1605      H1612   1.084       .  S
C1606      C1607   1.416       .  A
C1607      C1608   1.389       .  A
C1607      N1614   1.428       .  S
C1608      C1609   1.390       .  A
C1608      H1613   1.085       .  S
C1609      C1610   1.410       .  A
C1610      N1611   1.426       .  S
N1611      O1615   1.261       .  A
N1611      O1616   1.261       .  A
N1614      O1618   1.261       .  A
N1614      O1617   1.260       .  A
C1619      C1620   1.393       .  A
C1619      C1624   1.386       .  A
C1619      H1626   1.085       .  S
C1620      C1621   1.411       .  A
C1621      C1622   1.403       .  A
C1621      N1628   1.427       .  S
C1622      C1623   1.403       .  A
C1622      H1627   1.083       .  S
C1623      C1624   1.414       .  A
C1624      N1625   1.428       .  S
N1625      O1629   1.262       .  A
N1625      O1630   1.261       .  A
N1628      O1632   1.262       .  A
N1628      O1631   1.262       .  A
C1633      C1634   1.401       .  A
C1633      C1638   1.402       .  A
C1633      H1640   1.084       .  S
C1634      C1635   1.400       .  A
C1635      C1636   1.389       .  A
C1635      N1642   1.428       .  S
C1636      C1637   1.404       .  A
C1636      H1641   1.084       .  S
C1637      C1638   1.410       .  A
C1638      N1639   1.425       .  S
N1639      O1643   1.262       .  A
N1639      O1644   1.262       .  A
N1642      O1646   1.262       .  A
N1642      O1645   1.262       .  A
C1647      C1648   1.398       .  A
C1647      C1652   1.392       .  A
C1647      H1654   1.085       .  S
C1648      C1649   1.411       .  A
C1649      C1650   1.400       .  A
C1649      N1656   1.428       .  S
C1650      C1651   1.403       .  A
C1650      H1655   1.084       .  S
C1651      C1652   1.415       .  A
C1652      N1653   1.429       .  S
N1653      O1657   1.262       .  A
N1653      O1658   1.262       .  A
N1656      O1660   1.262       .  A
N1656      O1659   1.262       .  A
C1661      C1662   1.407       .  A
C1661      C1666   1.404       .  A
C1661      H1668   1.083       .  S
C1662      C1663   1.404       .  A
C1663      C1664   1.386       .  A
C1663      N1670   1.429       .  S
C1664      C1665   1.396       .  A
C1664      H1669   1.075       .  S
C1665      C1666   1.400       .  A
C1666      N1667   1.424       .  S
N1667      O1671   1.260       .  A
N1667      O1672   1.262       .  A
N1670      O1674   1.262       .  A
N1670      O1673   1.262       .  A
C1675      C1676   1.397       .  A
C1675      C1680   1.396       .  A
C1675      H1682   1.085       .  S
C1676      C1677   1.410       .  A
C1677      C1678   1.402       .  A
C1677      N1684   1.425       .  S
C1678      C1679   1.399       .  A
C1678      H1683   1.084       .  S
C1679      C1680   1.417       .  A
C1680      N1681   1.430       .  S
N1681      O1685   1.260       .  A
N1681      O1686   1.260       .  A
N1684      O1688   1.261       .  A
N1684      O1687   1.261       .  A
C1689      C1690   1.397       .  A
C1689      C1694   1.397       .  A
C1689      H1696   1.084       .  S
C1690      C1691   1.414       .  A
C1691      C1692   1.389       .  A
C1691      N1698   1.429       .  S
C1692      C1693   1.395       .  A
C1692      H1697   1.085       .  S
C1693      C1694   1.412       .  A
C1694      N1695   1.427       .  S
N1695      O1699   1.262       .  A
N1695      O1700   1.262       .  A
N1698      O1702   1.261       .  A
N1698      O1701   1.262       .  A
C1703      C1704   1.405       .  A
C1703      C1708   1.390       .  A
C1703      H1710   1.085       .  S
C1704      C1705   1.410       .  A
C1705      C1706   1.406       .  A
C1705      N1712   1.426       .  S
C1706      C1707   1.404       .  A
C1706      H1711   1.084       .  S
C1707      C1708   1.402       .  A
C1708      N1709   1.427       .  S
N1709      O1713   1.262       .  A
N1709      O1714   1.262       .  A
N1712      O1716   1.262       .  A
N1712      O1715   1.261       .  A
C1717      C1718   1.404       .  A
C1717      C1722   1.388       .  A
C1717      H1724   1.079       .  S
C1718      C1719   1.412       .  A
C1719      C1720   1.406       .  A
C1719      N1726   1.427       .  S
C1720      C1721   1.404       .  A
C1720      H1725   1.084       .  S
C1721      C1722   1.403       .  A
C1722      N1723   1.429       .  S
N1723      O1727   1.262       .  A
N1723      O1728   1.262       .  A
N1726      O1730   1.262       .  A
N1726      O1729   1.262       .  A
C1731      C1732   1.394       .  A
C1731      C1736   1.397       .  A
C1731      H1738   1.084       .  S
C1732      C1733   1.417       .  A
C1733      C1734   1.391       .  A
C1733      N1740   1.430       .  S
C1734      C1735   1.393       .  A
C1734      H1739   1.085       .  S
C1735      C1736   1.411       .  A
C1736      N1737   1.425       .  S
N1737      O1741   1.262       .  A
N1737      O1742   1.261       .  A
N1740      O1744   1.260       .  A
N1740      O1743   1.262       .  A
C1745      C1746   1.412       .  A
C1745      C1750   1.410       .  A
C1745      H1752   1.083       .  S
C1746      C1747   1.405       .  A
C1747      C1748   1.389       .  A
C1747      N1754   1.429       .  S
C1748      C1749   1.398       .  A
C1748      H1753   1.079       .  S
C1749      C1750   1.402       .  A
C1750      N1751   1.429       .  S
N1751      O1755   1.261       .  A
N1751      O1756   1.262       .  A
N1754      O1758   1.262       .  A
N1754      O1757   1.262       .  A
C1759      C1760   1.400       .  A
C1759      C1764   1.398       .  A
C1759      H1766   1.084       .  S
C1760      C1761   1.403       .  A
C1761      C1762   1.392       .  A
C1761      N1768   1.424       .  S
C1762      C1763   1.406       .  A
C1762      H1767   1.084       .  S
C1763      C1764   1.416       .  A
C1764      N1765   1.427       .  S
N1765      O1769   1.261       .  A
N1765      O1770   1.262       .  A
N1768      O1772   1.262       .  A
N1768      O1771   1.261       .  A
C1773      C1774   1.391       .  A
C1773      C1778   1.390       .  A
C1773      H1780   1.085       .  S
C1774      C1775   1.412       .  A
C1775      C1776   1.400       .  A
C1775      N1782   1.427       .  S
C1776      C1777   1.397       .  A
C1776      H1781   1.083       .  S
C1777      C1778   1.420       .  A
C1778      N1779   1.430       .  S
N1779      O1783   1.261       .  A
N1779      O1784   1.260       .  A
N1782      O1786   1.262       .  A
N1782      O1785   1.262       .  A
C1787      C1788   1.405       .  A
C1787      C1792   1.405       .  A
C1787      H1794   1.084       .  S
C1788      C1789   1.404       .  A
C1789      C1790   1.384       .  A
C1789      N1796   1.428       .  S
C1790      C1791   1.400       .  A
C1790      H1795   1.085       .  S
C1791      C1792   1.412       .  A
C1792      N1793   1.429       .  S
N1793      O1797   1.262       .  A
N1793      O1798   1.262       .  A
N1796      O1800   1.261       .  A
N1796      O1799   1.262       .  A
C1801      C1802   1.405       .  A
C1801      C1806   1.389       .  A
C1801      H1808   1.084       .  S
C1802      C1803   1.410       .  A
C1803      C1804   1.394       .  A
C1803      N1810   1.426       .  S
C1804      C1805   1.403       .  A
C1804      H1809   1.084       .  S
C1805      C1806   1.409       .  A
C1806      N1807   1.429       .  S
N1807      O1811   1.262       .  A
N1807      O1812   1.262       .  A
N1810      O1814   1.261       .  A
N1810      O1813   1.262       .  A
C1815      C1816   1.396       .  A
C1815      C1820   1.378       .  A
C1815      H1822   1.085       .  S
C1816      C1817   1.414       .  A
C1817      C1818   1.407       .  A
C1817      N1824   1.426       .  S
C1818      C1819   1.404       .  A
C1818      H1823   1.082       .  S
C1819      C1820   1.407       .  A
C1820      N1821   1.426       .  S
N1821      O1825   1.262       .  A
N1821      O1826   1.262       .  A
N1824      O1828   1.262       .  A
N1824      O1827   1.262       .  A
C1829      C1830   1.405       .  A
C1829      C1834   1.404       .  A
C1829      H1836   1.085       .  S
C1830      C1831   1.419       .  A
C1831      C1832   1.426       .  A
C1831      N1838   1.426       .  S
C1832      C1833   1.414       .  A
C1832      H1837   1.083       .  S
C1833      C1834   1.423       .  A
C1834      N1835   1.429       .  S
N1835      O1839   1.262       .  A
N1835      O1840   1.262       .  A
N1838      O1842   1.262       .  A
N1838      O1841   1.262       .  A
C1843      C1844   1.401       .  A
C1843      C1848   1.395       .  A
C1843      H1850   1.084       .  S
C1844      C1845   1.418       .  A
C1845      C1846   1.407       .  A
C1845      N1852   1.428       .  S
C1846      C1847   1.403       .  A
C1846      H1851   1.084       .  S
C1847      C1848   1.415       .  A
C1848      N1849   1.428       .  S
N1849      O1853   1.262       .  A
N1849      O1854   1.261       .  A
N1852      O1856   1.262       .  A
N1852      O1855   1.262       .  A
C1857      C1858   1.399       .  A
C1857      C1862   1.406       .  A
C1857      H1864   1.085       .  S
C1858      C1859   1.422       .  A
C1859      C1860   1.429       .  A
C1859      N1866   1.424       .  S
C1860      C1861   1.413       .  A
C1860      H1865   1.083       .  S
C1861      C1862   1.424       .  A
C1862      N1863   1.420       .  S
N1863      O1867   1.261       .  A
N1863      O1868   1.262       .  A
N1866      O1870   1.262       .  A
N1866      O1869   1.262       .  A
C1871      C1872   1.399       .  A
C1871      C1876   1.403       .  A
C1871      H1878   1.084       .  S
C1872      C1873   1.418       .  A
C1873      C1874   1.396       .  A
C1873      N1880   1.431       .  S
C1874      C1875   1.394       .  A
C1874      H1879   1.085       .  S
C1875      C1876   1.413       .  A
C1876      N1877   1.427       .  S
N1877      O1881   1.261       .  A
N1877      O1882   1.261       .  A
N1880      O1884   1.261       .  A
N1880      O1883   1.261       .  A
C1885      C1886   1.401       .  A
C1885      C1890   1.397       .  A
C1885      H1892   1.085       .  S
C1886      C1887   1.403       .  A
C1887      C1888   1.394       .  A
C1887      N1894   1.428       .  S
C1888      C1889   1.409       .  A
C1888      H1893   1.082       .  S
C1889      C1890   1.416       .  A
C1890      N1891   1.429       .  S
N1891      O1895   1.262       .  A
N1891      O1896   1.262       .  A
N1894      O1898   1.262       .  A
N1894      O1897   1.262       .  A
C1899      C1900   1.402       .  A
C1899      C1904   1.389       .  A
C1899      H1906   1.084       .  S
C1900      C1901   1.410       .  A
C1901      C1902   1.406       .  A
C1901      N1908   1.427       .  S
C1902      C1903   1.413       .  A
C1902      H1907   1.082       .  S
C1903      C1904   1.423       .  A
C1904      N1905   1.429       .  S
N1905      O1909   1.261       .  A
N1905      O1910   1.262       .  A
N1908      O1912   1.262       .  A
N1908      O1911   1.262       .  A
C1913      C1914   1.415       .  A
C1913      C1918   1.428       .  A
C1913      H1920   1.083       .  S
C1914      C1915   1.426       .  A
C1915      C1916   1.416       .  A
C1915      N1922   1.429       .  S
C1916      C1917   1.408       .  A
C1916      H1921   1.084       .  S
C1917      C1918   1.420       .  A
C1918      N1919   1.426       .  S
N1919      O1923   1.262       .  A
N1919      O1924   1.262       .  A
N1922      O1926   1.262       .  A
N1922      O1925   1.262       .  A
C1927      C1928   1.402       .  A
C1927      C1932   1.382       .  A
C1927      H1934   1.083       .  S
C1928      C1929   1.416       .  A
C1929      C1930   1.391       .  A
C1929      N1936   1.428       .  S
C1930      C1931   1.397       .  A
C1930      H1935   1.084       .  S
C1931      C1932   1.405       .  A
C1932      N1933   1.426       .  S
N1933      O1937   1.260       .  A
N1933      O1938   1.262       .  A
N1936      O1940   1.262       .  A
N1936      O1939   1.262       .  A
C1941      C1942   1.412       .  A
C1941      C1946   1.399       .  A
C1941      H1948   1.082       .  S
C1942      C1943   1.419       .  A
C1943      C1944   1.420       .  A
C1943      N1950   1.426       .  S
C1944      C1945   1.409       .  A
C1944      H1949   1.083       .  S
C1945      C1946   1.408       .  A
C1946      N1947   1.430       .  S
N1947      O1951   1.262       .  A
N1947      O1952   1.262       .  A
N1950      O1954   1.262       .  A
N1950      O1953   1.262       .  A
C1955      C1956   1.404       .  A
C1955      C1960   1.402       .  A
C1955      H1962   1.084       .  S
C1956      C1957   1.400       .  A
C1957      C1958   1.392       .  A
C1957      N1964   1.430       .  S
C1958      C1959   1.414       .  A
C1958      H1963   1.084       .  S
C1959      C1960   1.412       .  A
C1960      N1961   1.428       .  S
N1961      O1965   1.262       .  A
N1961      O1966   1.262       .  A
N1964      O1968   1.261       .  A
N1964      O1967   1.262       .  A
C1969      C1970   1.395       .  A
C1969      C1974   1.393       .  A
C1969      H1976   1.085       .  S
C1970      C1971   1.417       .  A
C1971      C1972   1.415       .  A
C1971      N1978   1.427       .  S
C1972      C1973   1.407       .  A
C1972      H1977   1.083       .  S
C1973      C1974   1.424       .  A
C1974      N1975   1.429       .  S
N1975      O1979   1.262       .  A
N1975      O1980   1.262       .  A
N1978      O1982   1.262       .  A
N1978      O1981   1.262       .  A
C1983      C1984   1.407       .  A
C1983      C1988   1.408       .  A
C1983      H1990   1.084       .  S
C1984      C1985   1.422       .  A
C1985      C1986   1.403       .  A
C1985      N1992   1.424       .  S
C1986      C1987   1.396       .  A
C1986      H1991   1.084       .  S
C1987      C1988   1.420       .  A
C1988      N1989   1.429       .  S
N1989      O1993   1.262       .  A
N1989      O1994   1.262       .  A
N1992      O1996   1.259       .  A
N1992      O1995   1.260       .  A
C1997      C1998   1.408       .  A
C1997      C2002   1.416       .  A
C1997      H2004   1.084       .  S
C1998      C1999   1.409       .  A
C1999      C2000   1.393       .  A
C1999      N2006   1.429       .  S
C2000      C2001   1.404       .  A
C2000      H2005   1.081       .  S
C2001      C2002   1.420       .  A
C2002      N2003   1.428       .  S
N2003      O2007   1.262       .  A
N2003      O2008   1.262       .  A
N2006      O2010   1.262       .  A
N2006      O2009   1.262       .  A
C2011      C2012   1.417       .  A
C2011      C2016   1.402       .  A
C2011      H2018   1.083       .  S
C2012      C2013   1.416       .  A
C2013      C2014   1.398       .  A
C2013      N2020   1.428       .  S
C2014      C2015   1.401       .  A
C2014      H2019   1.084       .  S
C2015      C2016   1.402       .  A
C2016      N2017   1.429       .  S
N2017      O2021   1.262       .  A
N2017      O2022   1.262       .  A
N2020      O2024   1.262       .  A
N2020      O2023   1.261       .  A
C2025      C2026   1.410       .  A
C2025      C2030   1.418       .  A
C2025      H2032   1.083       .  S
C2026      C2027   1.425       .  A
C2027      C2028   1.404       .  A
C2027      N2034   1.429       .  S
C2028      C2029   1.401       .  A
C2028      H2033   1.085       .  S
C2029      C2030   1.414       .  A
C2030      N2031   1.426       .  S
N2031      O2035   1.262       .  A
N2031      O2036   1.262       .  A
N2034      O2038   1.261       .  A
N2034      O2037   1.262       .  A
C2039      C2040   1.404       .  A
C2039      C2044   1.392       .  A
C2039      H2046   1.083       .  S
C2040      C2041   1.418       .  A
C2041      C2042   1.388       .  A
C2041      N2048   1.424       .  S
C2042      C2043   1.392       .  A
C2042      H2047   1.083       .  S
C2043      C2044   1.408       .  A
C2044      N2045   1.427       .  S
N2045      O2049   1.261       .  A
N2045      O2050   1.260       .  A
N2048      O2052   1.262       .  A
N2048      O2051   1.262       .  A
C2053      C2054   1.408       .  A
C2053      C2058   1.419       .  A
C2053      H2060   1.083       .  S
C2054      C2055   1.404       .  A
C2055      C2056   1.389       .  A
C2055      N2062   1.428       .  S
C2056      C2057   1.408       .  A
C2056      H2061   1.083       .  S
C2057      C2058   1.420       .  A
C2058      N2059   1.428       .  S
N2059      O2063   1.262       .  A
N2059      O2064   1.262       .  A
N2062      O2066   1.262       .  A
N2062      O2065   1.262       .  A
C2067      C2068   1.408       .  A
C2067      C2072   1.404       .  A
C2067      H2074   1.081       .  S
C2068      C2069   1.408       .  A
C2069      C2070   1.411       .  A
C2069      N2076   1.430       .  S
C2070      C2071   1.418       .  A
C2070      H2075   1.084       .  S
C2071      C2072   1.411       .  A
C2072      N2073   1.426       .  S
N2073      O2077   1.261       .  A
N2073      O2078   1.262       .  A
N2076      O2080   1.262       .  A
N2076      O2079   1.262       .  A
C2081      C2082   1.412       .  A
C2081      C2086   1.425       .  A
C2081      H2088   1.082       .  S
C2082      C2083   1.428       .  A
C2083      C2084   1.412       .  A
C2083      N2090   1.419       .  S
C2084      C2085   1.397       .  A
C2084      H2089   1.085       .  S
C2085      C2086   1.419       .  A
C2086      N2087   1.425       .  S
N2087      O2091   1.261       .  A
N2087      O2092   1.262       .  A
N2090      O2094   1.259       .  A
N2090      O2093   1.262       .  A
C2095      C2096   1.394       .  A
C2095      C2100   1.396       .  A
C2095      H2102   1.083       .  S
C2096      C2097   1.400       .  A
C2097      C2098   1.394       .  A
C2097      N2104   1.427       .  S
C2098      C2099   1.404       .  A
C2098      H2103   1.084       .  S
C2099      C2100   1.415       .  A
C2100      N2101   1.428       .  S
N2101      O2105   1.262       .  A
N2101      O2106   1.261       .  A
N2104      O2108   1.262       .  A
N2104      O2107   1.261       .  A
C2109      C2110   1.405       .  A
C2109      C2114   1.391       .  A
C2109      H2116   1.082       .  S
C2110      C2111   1.411       .  A
C2111      C2112   1.413       .  A
C2111      N2118   1.428       .  S
C2112      C2113   1.410       .  A
C2112      H2117   1.083       .  S
C2113      C2114   1.404       .  A
C2114      N2115   1.429       .  S
N2115      O2119   1.262       .  A
N2115      O2120   1.262       .  A
N2118      O2122   1.262       .  A
N2118      O2121   1.262       .  A
C2123      C2124   1.416       .  A
C2123      C2128   1.407       .  A
C2123      H2130   1.083       .  S
C2124      C2125   1.412       .  A
C2125      C2126   1.398       .  A
C2125      N2132   1.422       .  S
C2126      C2127   1.405       .  A
C2126      H2131   1.082       .  S
C2127      C2128   1.408       .  A
C2128      N2129   1.428       .  S
N2129      O2133   1.262       .  A
N2129      O2134   1.262       .  A
N2132      O2136   1.262       .  A
N2132      O2135   1.262       .  A
C2137      C2138   1.408       .  A
C2137      C2142   1.392       .  A
C2137      H2144   1.084       .  S
C2138      C2139   1.413       .  A
C2139      C2140   1.422       .  A
C2139      N2146   1.427       .  S
C2140      C2141   1.414       .  A
C2140      H2145   1.083       .  S
C2141      C2142   1.407       .  A
C2142      N2143   1.430       .  S
N2143      O2147   1.262       .  A
N2143      O2148   1.262       .  A
N2146      O2150   1.262       .  A
N2146      O2149   1.262       .  A
C2151      C2152   1.409       .  A
C2151      C2156   1.399       .  A
C2151      H2158   1.083       .  S
C2152      C2153   1.411       .  A
C2153      C2154   1.410       .  A
C2153      N2160   1.426       .  S
C2154      C2155   1.412       .  A
C2154      H2159   1.084       .  S
C2155      C2156   1.407       .  A
C2156      N2157   1.424       .  S
N2157      O2161   1.260       .  A
N2157      O2162   1.262       .  A
N2160      O2164   1.262       .  A
N2160      O2163   1.260       .  A
C2165      C2166   1.404       .  A
C2165      C2170   1.403       .  A
C2165      H2172   1.084       .  S
C2166      C2167   1.426       .  A
C2167      C2168   1.431       .  A
C2167      N2174   1.427       .  S
C2168      C2169   1.413       .  A
C2168      H2173   1.083       .  S
C2169      C2170   1.422       .  A
C2170      N2171   1.427       .  S
N2171      O2175   1.262       .  A
N2171      O2176   1.262       .  A
N2174      O2178   1.261       .  A
N2174      O2177   1.262       .  A
C2179      C2180   1.395       .  A
C2179      C2184   1.389       .  A
C2179      H2186   1.085       .  S
C2180      C2181   1.406       .  A
C2181      C2182   1.399       .  A
C2181      N2188   1.428       .  S
C2182      C2183   1.408       .  A
C2182      H2187   1.082       .  S
C2183      C2184   1.419       .  A
C2184      N2185   1.428       .  S
N2185      O2189   1.262       .  A
N2185      O2190   1.261       .  A
N2188      O2192   1.262       .  A
N2188      O2191   1.262       .  A
C2193      C2194   1.416       .  A
C2193      C2198   1.425       .  A
C2193      H2200   1.083       .  S
C2194      C2195   1.423       .  A
C2195      C2196   1.391       .  A
C2195      N2202   1.417       .  S
C2196      C2197   1.385       .  A
C2196      H2201   1.086       .  S
C2197      C2198   1.412       .  A
C2198      N2199   1.427       .  S
N2199      O2203   1.261       .  A
N2199      O2204   1.262       .  A
N2202      O2206   1.261       .  A
N2202      O2205   1.262       .  A
C2207      C2208   1.407       .  A
C2207      C2212   1.395       .  A
C2207      H2214   1.084       .  S
C2208      C2209   1.414       .  A
C2209      C2210   1.404       .  A
C2209      N2216   1.427       .  S
C2210      C2211   1.404       .  A
C2210      H2215   1.084       .  S
C2211      C2212   1.405       .  A
C2212      N2213   1.425       .  S
N2213      O2217   1.261       .  A
N2213      O2218   1.262       .  A
N2216      O2220   1.262       .  A
N2216      O2219   1.261       .  A
C2221      C2222   1.405       .  A
C2221      C2226   1.410       .  A
C2221      H2228   1.084       .  S
C2222      C2223   1.420       .  A
C2223      C2224   1.397       .  A
C2223      N2230   1.430       .  S
C2224      C2225   1.402       .  A
C2224      H2229   1.084       .  S
C2225      C2226   1.415       .  A
C2226      N2227   1.425       .  S
N2227      O2231   1.262       .  A
N2227      O2232   1.261       .  A
N2230      O2234   1.262       .  A
N2230      O2233   1.262       .  A
C2235      C2236   1.405       .  A
C2235      C2240   1.400       .  A
C2235      H2242   1.084       .  S
C2236      C2237   1.422       .  A
C2237      C2238   1.401       .  A
C2237      N2244   1.428       .  S
C2238      C2239   1.397       .  A
C2238      H2243   1.084       .  S
C2239      C2240   1.411       .  A
C2240      N2241   1.428       .  S
N2241      O2245   1.262       .  A
N2241      O2246   1.262       .  A
N2244      O2248   1.261       .  A
N2244      O2247   1.261       .  A
C2249      C2250   1.402       .  A
C2249      C2254   1.385       .  A
C2249      H2256   1.085       .  S
C2250      C2251   1.406       .  A
C2251      C2252   1.416       .  A
C2251      N2258   1.427       .  S
C2252      C2253   1.417       .  A
C2252      H2257   1.083       .  S
C2253      C2254   1.411       .  A
C2254      N2255   1.427       .  S
N2255      O2259   1.262       .  A
N2255      O2260   1.262       .  A
N2258      O2262   1.261       .  A
N2258      O2261   1.262       .  A
C2263      C2264   1.399       .  A
C2263      C2268   1.403       .  A
C2263      H2270   1.084       .  S
C2264      C2265   1.416       .  A
C2265      C2266   1.400       .  A
C2265      N2272   1.430       .  S
C2266      C2267   1.406       .  A
C2266      H2271   1.084       .  S
C2267      C2268   1.420       .  A
C2268      N2269   1.427       .  S
N2269      O2273   1.261       .  A
N2269      O2274   1.262       .  A
N2272      O2276   1.262       .  A
N2272      O2275   1.262       .  A
C2277      C2278   1.409       .  A
C2277      C2282   1.389       .  A
C2277      H2284   1.083       .  S
C2278      C2279   1.414       .  A
C2279      C2280   1.415       .  A
C2279      N2286   1.428       .  S
C2280      C2281   1.409       .  A
C2280      H2285   1.084       .  S
C2281      C2282   1.406       .  A
C2282      N2283   1.431       .  S
N2283      O2287   1.262       .  A
N2283      O2288   1.262       .  A
N2286      O2290   1.262       .  A
N2286      O2289   1.262       .  A
C2291      C2292   1.409       .  A
C2291      C2296   1.395       .  A
C2291      H2298   1.083       .  S
C2292      C2293   1.414       .  A
C2293      C2294   1.402       .  A
C2293      N2300   1.427       .  S
C2294      C2295   1.404       .  A
C2294      H2299   1.084       .  S
C2295      C2296   1.405       .  A
C2296      N2297   1.424       .  S
N2297      O2301   1.259       .  A
N2297      O2302   1.262       .  A
N2300      O2304   1.262       .  A
N2300      O2303   1.261       .  A
C2305      C2306   1.403       .  A
C2305      C2310   1.391       .  A
C2305      H2312   1.084       .  S
C2306      C2307   1.414       .  A
C2307      C2308   1.421       .  A
C2307      N2314   1.427       .  S
C2308      C2309   1.413       .  A
C2308      H2313   1.083       .  S
C2309      C2310   1.412       .  A
C2310      N2311   1.428       .  S
N2311      O2315   1.262       .  A
N2311      O2316   1.262       .  A
N2314      O2318   1.262       .  A
N2314      O2317   1.262       .  A
C2319      C2320   1.412       .  A
C2319      C2324   1.413       .  A
C2319      H2326   1.083       .  S
C2320      C2321   1.426       .  A
C2321      C2322   1.400       .  A
C2321      N2328   1.427       .  S
C2322      C2323   1.391       .  A
C2322      H2327   1.085       .  S
C2323      C2324   1.410       .  A
C2324      N2325   1.430       .  S
N2325      O2329   1.262       .  A
N2325      O2330   1.262       .  A
N2328      O2332   1.260       .  A
N2328      O2331   1.262       .  A
C2333      C2334   1.411       .  A
C2333      C2338   1.415       .  A
C2333      H2340   1.083       .  S
C2334      C2335   1.427       .  A
C2335      C2336   1.386       .  A
C2335      N2342   1.431       .  S
C2336      C2337   1.390       .  A
C2336      H2341   1.086       .  S
C2337      C2338   1.407       .  A
C2338      N2339   1.427       .  S
N2339      O2343   1.262       .  A
N2339      O2344   1.262       .  A
N2342      O2346   1.262       .  A
N2342      O2345   1.262       .  A
C2347      C2348   1.410       .  A
C2347      C2352   1.404       .  A
C2347      H2354   1.083       .  S
C2348      C2349   1.417       .  A
C2349      C2350   1.406       .  A
C2349      N2356   1.427       .  S
C2350      C2351   1.406       .  A
C2350      H2355   1.084       .  S
C2351      C2352   1.410       .  A
C2352      N2353   1.424       .  S
N2353      O2357   1.260       .  A
N2353      O2358   1.262       .  A
N2356      O2360   1.261       .  A
N2356      O2359   1.262       .  A
C2361      C2362   1.408       .  A
C2361      C2366   1.382       .  A
C2361      H2368   1.084       .  S
C2362      C2363   1.414       .  A
C2363      C2364   1.414       .  A
C2363      N2370   1.427       .  S
C2364      C2365   1.407       .  A
C2364      H2369   1.083       .  S
C2365      C2366   1.402       .  A
C2366      N2367   1.428       .  S
N2367      O2371   1.261       .  A
N2367      O2372   1.262       .  A
N2370      O2374   1.262       .  A
N2370      O2373   1.262       .  A
C2375      C2376   1.409       .  A
C2375      C2380   1.403       .  A
C2375      H2382   1.084       .  S
C2376      C2377   1.409       .  A
C2377      C2378   1.401       .  A
C2377      N2384   1.427       .  S
C2378      C2379   1.411       .  A
C2378      H2383   1.084       .  S
C2379      C2380   1.414       .  A
C2380      N2381   1.428       .  S
N2381      O2385   1.261       .  A
N2381      O2386   1.262       .  A
N2384      O2388   1.262       .  A
N2384      O2387   1.262       .  A
C2389      C2390   1.408       .  A
C2389      C2394   1.391       .  A
C2389      H2396   1.084       .  S
C2390      C2391   1.418       .  A
C2391      C2392   1.416       .  A
C2391      N2398   1.427       .  S
C2392      C2393   1.407       .  A
C2392      H2397   1.083       .  S
C2393      C2394   1.409       .  A
C2394      N2395   1.431       .  S
N2395      O2399   1.261       .  A
N2395      O2400   1.262       .  A
N2398      O2402   1.261       .  A
N2398      O2401   1.262       .  A
C2403      C2404   1.408       .  A
C2403      C2408   1.410       .  A
C2403      H2410   1.082       .  S
C2404      C2405   1.419       .  A
C2405      C2406   1.399       .  A
C2405      N2412   1.427       .  S
C2406      C2407   1.395       .  A
C2406      H2411   1.085       .  S
C2407      C2408   1.409       .  A
C2408      N2409   1.429       .  S
N2409      O2413   1.262       .  A
N2409      O2414   1.262       .  A
N2412      O2416   1.261       .  A
N2412      O2415   1.262       .  A
C2417      C2418   1.410       .  A
C2417      C2422   1.425       .  A
C2417      H2424   1.083       .  S
C2418      C2419   1.411       .  A
C2419      C2420   1.400       .  A
C2419      N2426   1.429       .  S
C2420      C2421   1.405       .  A
C2420      H2425   1.076       .  S
C2421      C2422   1.423       .  A
C2422      N2423   1.427       .  S
N2423      O2427   1.262       .  A
N2423      O2428   1.262       .  A
N2426      O2430   1.261       .  A
N2426      O2429   1.260       .  A
C2431      C2432   1.406       .  A
C2431      C2436   1.390       .  A
C2431      H2438   1.084       .  S
C2432      C2433   1.416       .  A
C2433      C2434   1.403       .  A
C2433      N2440   1.427       .  S
C2434      C2435   1.400       .  A
C2434      H2439   1.084       .  S
C2435      C2436   1.406       .  A
C2436      N2437   1.429       .  S
N2437      O2441   1.262       .  A
N2437      O2442   1.262       .  A
N2440      O2444   1.261       .  A
N2440      O2443   1.261       .  A
C2445      C2446   1.407       .  A
C2445      C2450   1.414       .  A
C2445      H2452   1.083       .  S
C2446      C2447   1.403       .  A
C2447      C2448   1.383       .  A
C2447      N2454   1.431       .  S
C2448      C2449   1.411       .  A
C2448      H2453   1.083       .  S
C2449      C2450   1.414       .  A
C2450      N2451   1.427       .  S
N2451      O2455   1.262       .  A
N2451      O2456   1.262       .  A
N2454      O2458   1.262       .  A
N2454      O2457   1.262       .  A
C2459      C2460   1.405       .  A
C2459      C2464   1.408       .  A
C2459      H2466   1.084       .  S
C2460      C2461   1.402       .  A
C2461      C2462   1.395       .  A
C2461      N2468   1.426       .  S
C2462      C2463   1.414       .  A
C2462      H2467   1.083       .  S
C2463      C2464   1.416       .  A
C2464      N2465   1.427       .  S
N2465      O2469   1.261       .  A
N2465      O2470   1.262       .  A
N2468      O2472   1.262       .  A
N2468      O2471   1.260       .  A
C2473      C2474   1.406       .  A
C2473      C2478   1.409       .  A
C2473      H2480   1.083       .  S
C2474      C2475   1.423       .  A
C2475      C2476   1.399       .  A
C2475      N2482   1.430       .  S
C2476      C2477   1.398       .  A
C2476      H2481   1.085       .  S
C2477      C2478   1.412       .  A
C2478      N2479   1.426       .  S
N2479      O2483   1.261       .  A
N2479      O2484   1.262       .  A
N2482      O2486   1.262       .  A
N2482      O2485   1.262       .  A
C2487      C2488   1.411       .  A
C2487      C2492   1.397       .  A
C2487      H2494   1.084       .  S
C2488      C2489   1.411       .  A
C2489      C2490   1.400       .  A
C2489      N2496   1.428       .  S
C2490      C2491   1.408       .  A
C2490      H2495   1.084       .  S
C2491      C2492   1.407       .  A
C2492      N2493   1.427       .  S
N2493      O2497   1.260       .  A
N2493      O2498   1.262       .  A
N2496      O2500   1.262       .  A
N2496      O2499   1.262       .  A
C2501      C2502   1.409       .  A
C2501      C2506   1.422       .  A
C2501      H2508   1.083       .  S
C2502      C2503   1.418       .  A
C2503      C2504   1.393       .  A
C2503      N2510   1.427       .  S
C2504      C2505   1.399       .  A
C2504      H2509   1.084       .  S
C2505      C2506   1.422       .  A
C2506      N2507   1.426       .  S
N2507      O2511   1.262       .  A
N2507      O2512   1.262       .  A
N2510      O2514   1.262       .  A
N2510      O2513   1.261       .  A
C2515      C2516   1.410       .  A
C2515      C2520   1.395       .  A
C2515      H2522   1.084       .  S
C2516      C2517   1.416       .  A
C2517      C2518   1.402       .  A
C2517      N2524   1.429       .  S
C2518      C2519   1.406       .  A
C2518      H2523   1.084       .  S
C2519      C2520   1.404       .  A
C2520      N2521   1.424       .  S
N2521      O2525   1.260       .  A
N2521      O2526   1.262       .  A
N2524      O2528   1.262       .  A
N2524      O2527   1.262       .  A
C2529      C2530   1.408       .  A
C2529      C2534   1.390       .  A
C2529      H2536   1.083       .  S
C2530      C2531   1.415       .  A
C2531      C2532   1.419       .  A
C2531      N2538   1.426       .  S
C2532      C2533   1.411       .  A
C2532      H2537   1.083       .  S
C2533      C2534   1.408       .  A
C2534      N2535   1.428       .  S
N2535      O2539   1.261       .  A
N2535      O2540   1.262       .  A
N2538      O2542   1.262       .  A
N2538      O2541   1.262       .  A
C2543      C2544   1.405       .  A
C2543      C2548   1.403       .  A
C2543      H2550   1.084       .  S
C2544      C2545   1.423       .  A
C2545      C2546   1.400       .  A
C2545      N2552   1.429       .  S
C2546      C2547   1.397       .  A
C2546      H2551   1.085       .  S
C2547      C2548   1.412       .  A
C2548      N2549   1.428       .  S
N2549      O2553   1.262       .  A
N2549      O2554   1.262       .  A
N2552      O2556   1.262       .  A
N2552      O2555   1.262       .  A
C2557      C2558   1.415       .  A
C2557      C2562   1.430       .  A
C2557      H2564   1.083       .  S
C2558      C2559   1.424       .  A
C2559      C2560   1.408       .  A
C2559      N2566   1.429       .  S
C2560      C2561   1.406       .  A
C2560      H2565   1.084       .  S
C2561      C2562   1.422       .  A
C2562      N2563   1.427       .  S
N2563      O2567   1.262       .  A
N2563      O2568   1.262       .  A
N2566      O2570   1.262       .  A
N2566      O2569   1.262       .  A
C2571      C2572   1.409       .  A
C2571      C2576   1.397       .  A
C2571      H2578   1.084       .  S
C2572      C2573   1.416       .  A
C2573      C2574   1.391       .  A
C2573      N2580   1.429       .  S
C2574      C2575   1.393       .  A
C2574      H2579   1.085       .  S
C2575      C2576   1.399       .  A
C2576      N2577   1.429       .  S
N2577      O2581   1.261       .  A
N2577      O2582   1.262       .  A
N2580      O2584   1.261       .  A
N2580      O2583   1.262       .  A
C2585      C2586   1.401       .  A
C2585      C2590   1.409       .  A
C2585      H2592   1.083       .  S
C2586      C2587   1.427       .  A
C2587      C2588   1.388       .  A
C2587      N2594   1.432       .  S
C2588      C2589   1.393       .  A
C2588      H2593   1.085       .  S
C2589      C2590   1.414       .  A
C2590      N2591   1.424       .  S
N2591      O2595   1.262       .  A
N2591      O2596   1.262       .  A
N2594      O2598   1.262       .  A
N2594      O2597   1.262       .  A
C2599      C2600   1.405       .  A
C2599      C2604   1.395       .  A
C2599      H2606   1.083       .  S
C2600      C2601   1.417       .  A
C2601      C2602   1.404       .  A
C2601      N2608   1.428       .  S
C2602      C2603   1.405       .  A
C2602      H2607   1.085       .  S
C2603      C2604   1.406       .  A
C2604      N2605   1.424       .  S
N2605      O2609   1.261       .  A
N2605      O2610   1.262       .  A
N2608      O2612   1.261       .  A
N2608      O2611   1.262       .  A
C2613      C2614   1.408       .  A
C2613      C2618   1.408       .  A
C2613      H2620   1.083       .  S
C2614      C2615   1.418       .  A
C2615      C2616   1.387       .  A
C2615      N2622   1.417       .  S
C2616      C2617   1.385       .  A
C2616      H2621   1.086       .  S
C2617      C2618   1.407       .  A
C2618      N2619   1.425       .  S
N2619      O2623   1.262       .  A
N2619      O2624   1.261       .  A
N2622      O2626   1.259       .  A
N2622      O2625   1.262       .  A
C2627      C2628   1.410       .  A
C2627      C2632   1.397       .  A
C2627      H2634   1.082       .  S
C2628      C2629   1.417       .  A
C2629      C2630   1.393       .  A
C2629      N2636   1.429       .  S
C2630      C2631   1.399       .  A
C2630      H2635   1.084       .  S
C2631      C2632   1.405       .  A
C2632      N2633   1.428       .  S
N2633      O2637   1.261       .  A
N2633      O2638   1.262       .  A
N2636      O2640   1.262       .  A
N2636      O2639   1.261       .  A
C2641      C2642   1.408       .  A
C2641      C2646   1.413       .  A
C2641      H2648   1.083       .  S
C2642      C2643   1.417       .  A
C2643      C2644   1.395       .  A
C2643      N2650   1.417       .  S
C2644      C2645   1.392       .  A
C2644      H2649   1.086       .  S
C2645      C2646   1.414       .  A
C2646      N2647   1.424       .  S
N2647      O2651   1.262       .  A
N2647      O2652   1.262       .  A
N2650      O2654   1.261       .  A
N2650      O2653   1.262       .  A
C2655      C2656   1.413       .  A
C2655      C2660   1.402       .  A
C2655      H2662   1.083       .  S
C2656      C2657   1.419       .  A
C2657      C2658   1.406       .  A
C2657      N2664   1.428       .  S
C2658      C2659   1.405       .  A
C2658      H2663   1.084       .  S
C2659      C2660   1.401       .  A
C2660      N2661   1.422       .  S
N2661      O2665   1.260       .  A
N2661      O2666   1.262       .  A
N2664      O2668   1.262       .  A
N2664      O2667   1.262       .  A
C2669      C2670   1.409       .  A
C2669      C2674   1.382       .  A
C2669      H2676   1.084       .  S
C2670      C2671   1.414       .  A
C2671      C2672   1.415       .  A
C2671      N2678   1.427       .  S
C2672      C2673   1.409       .  A
C2672      H2677   1.083       .  S
C2673      C2674   1.408       .  A
C2674      N2675   1.433       .  S
N2675      O2679   1.262       .  A
N2675      O2680   1.262       .  A
N2678      O2682   1.261       .  A
N2678      O2681   1.262       .  A
C2683      C2684   1.401       .  A
C2683      C2688   1.405       .  A
C2683      H2690   1.084       .  S
C2684      C2685   1.426       .  A
C2685      C2686   1.404       .  A
C2685      N2692   1.428       .  S
C2686      C2687   1.396       .  A
C2686      H2691   1.084       .  S
C2687      C2688   1.418       .  A
C2688      N2689   1.428       .  S
N2689      O2693   1.261       .  A
N2689      O2694   1.262       .  A
N2692      O2696   1.260       .  A
N2692      O2695   1.262       .  A
C2697      C2698   1.406       .  A
C2697      C2702   1.387       .  A
C2697      H2704   1.080       .  S
C2698      C2699   1.419       .  A
C2699      C2700   1.414       .  A
C2699      N2706   1.427       .  S
C2700      C2701   1.405       .  A
C2700      H2705   1.084       .  S
C2701      C2702   1.403       .  A
C2702      N2703   1.429       .  S
N2703      O2707   1.262       .  A
N2703      O2708   1.262       .  A
N2706      O2710   1.261       .  A
N2706      O2709   1.262       .  A
C2711      C2712   1.409       .  A
C2711      C2716   1.399       .  A
C2711      H2718   1.084       .  S
C2712      C2713   1.406       .  A
C2713      C2714   1.408       .  A
C2713      N2720   1.425       .  S
C2714      C2715   1.410       .  A
C2714      H2719   1.084       .  S
C2715      C2716   1.409       .  A
C2716      N2717   1.427       .  S
N2717      O2721   1.261       .  A
N2717      O2722   1.262       .  A
N2720      O2724   1.262       .  A
N2720      O2723   1.261       .  A
C2725      C2726   1.407       .  A
C2725      C2730   1.382       .  A
C2725      H2732   1.084       .  S
C2726      C2727   1.407       .  A
C2727      C2728   1.415       .  A
C2727      N2734   1.428       .  S
C2728      C2729   1.413       .  A
C2728      H2733   1.083       .  S
C2729      C2730   1.407       .  A
C2730      N2731   1.432       .  S
N2731      O2735   1.262       .  A
N2731      O2736   1.262       .  A
N2734      O2738   1.262       .  A
N2734      O2737   1.262       .  A
C2739      C2740   1.401       .  A
C2739      C2744   1.402       .  A
C2739      H2746   1.084       .  S
C2740      C2741   1.422       .  A
C2741      C2742   1.404       .  A
C2741      N2748   1.426       .  S
C2742      C2743   1.398       .  A
C2742      H2747   1.084       .  S
C2743      C2744   1.414       .  A
C2744      N2745   1.424       .  S
N2745      O2749   1.259       .  A
N2745      O2750   1.261       .  A
N2748      O2752   1.259       .  A
N2748      O2751   1.262       .  A
C2753      C2754   1.400       .  A
C2753      C2758   1.385       .  A
C2753      H2760   1.084       .  S
C2754      C2755   1.416       .  A
C2755      C2756   1.413       .  A
C2755      N2762   1.427       .  S
C2756      C2757   1.407       .  A
C2756      H2761   1.084       .  S
C2757      C2758   1.413       .  A
C2758      N2759   1.429       .  S
N2759      O2763   1.259       .  A
N2759      O2764   1.262       .  A
N2762      O2766   1.262       .  A
N2762      O2765   1.262       .  A
C2767      C2768   1.402       .  A
C2767      C2772   1.399       .  A
C2767      H2774   1.084       .  S
C2768      C2769   1.419       .  A
C2769      C2770   1.402       .  A
C2769      N2776   1.430       .  S
C2770      C2771   1.400       .  A
C2770      H2775   1.084       .  S
C2771      C2772   1.413       .  A
C2772      N2773   1.429       .  S
N2773      O2777   1.262       .  A
N2773      O2778   1.262       .  A
N2776      O2780   1.262       .  A
N2776      O2779   1.263       .  A
C2781      C2782   1.411       .  A
C2781      C2786   1.415       .  A
C2781      H2788   1.083       .  S
C2782      C2783   1.429       .  A
C2783      C2784   1.385       .  A
C2783      N2790   1.432       .  S
C2784      C2785   1.387       .  A
C2784      H2789   1.086       .  S
C2785      C2786   1.407       .  A
C2786      N2787   1.428       .  S
N2787      O2791   1.262       .  A
N2787      O2792   1.262       .  A
N2790      O2794   1.263       .  A
N2790      O2793   1.262       .  A
C2795      C2796   1.410       .  A
C2795      C2800   1.400       .  A
C2795      H2802   1.084       .  S
C2796      C2797   1.418       .  A
C2797      C2798   1.404       .  A
C2797      N2804   1.427       .  S
C2798      C2799   1.400       .  A
C2798      H2803   1.084       .  S
C2799      C2800   1.402       .  A
C2800      N2801   1.426       .  S
N2801      O2805   1.259       .  A
N2801      O2806   1.262       .  A
N2804      O2808   1.261       .  A
N2804      O2807   1.262       .  A
C2809      C2810   1.406       .  A
C2809      C2814   1.395       .  A
C2809      H2816   1.083       .  S
C2810      C2811   1.418       .  A
C2811      C2812   1.403       .  A
C2811      N2818   1.429       .  S
C2812      C2813   1.398       .  A
C2812      H2817   1.084       .  S
C2813      C2814   1.403       .  A
C2814      N2815   1.430       .  S
N2815      O2819   1.262       .  A
N2815      O2820   1.262       .  A
N2818      O2822   1.262       .  A
N2818      O2821   1.262       .  A
C2823      C2824   1.402       .  A
C2823      C2828   1.410       .  A
C2823      H2830   1.084       .  S
C2824      C2825   1.420       .  A
C2825      C2826   1.406       .  A
C2825      N2832   1.430       .  S
C2826      C2827   1.400       .  A
C2826      H2831   1.084       .  S
C2827      C2828   1.416       .  A
C2828      N2829   1.427       .  S
N2829      O2833   1.261       .  A
N2829      O2834   1.262       .  A
N2832      O2836   1.262       .  A
N2832      O2835   1.262       .  A
C2837      C2838   1.405       .  A
C2837      C2842   1.390       .  A
C2837      H2844   1.078       .  S
C2838      C2839   1.418       .  A
C2839      C2840   1.415       .  A
C2839      N2846   1.428       .  S
C2840      C2841   1.407       .  A
C2840      H2845   1.084       .  S
C2841      C2842   1.403       .  A
C2842      N2843   1.429       .  S
N2843      O2847   1.261       .  A
N2843      O2848   1.262       .  A
N2846      O2850   1.262       .  A
N2846      O2849   1.262       .  A
C2851      C2852   1.404       .  A
C2851      C2856   1.396       .  A
C2851      H2858   1.081       .  S
C2852      C2853   1.413       .  A
C2853      C2854   1.402       .  A
C2853      N2860   1.429       .  S
C2854      C2855   1.410       .  A
C2854      H2859   1.084       .  S
C2855      C2856   1.409       .  A
C2856      N2857   1.421       .  S
N2857      O2861   1.261       .  A
N2857      O2862   1.262       .  A
N2860      O2864   1.262       .  A
N2860      O2863   1.262       .  A
C2865      C2866   1.409       .  A
C2865      C2870   1.416       .  A
C2865      H2872   1.084       .  S
C2866      C2867   1.414       .  A
C2867      C2868   1.386       .  A
C2867      N2874   1.431       .  S
C2868      C2869   1.403       .  A
C2868      H2873   1.084       .  S
C2869      C2870   1.416       .  A
C2870      N2871   1.427       .  S
N2871      O2875   1.261       .  A
N2871      O2876   1.262       .  A
N2874      O2878   1.261       .  A
N2874      O2877   1.260       .  A
C2879      C2880   1.411       .  A
C2879      C2884   1.397       .  A
C2879      H2886   1.083       .  S
C2880      C2881   1.414       .  A
C2881      C2882   1.403       .  A
C2881      N2888   1.426       .  S
C2882      C2883   1.405       .  A
C2882      H2887   1.085       .  S
C2883      C2884   1.405       .  A
C2884      N2885   1.424       .  S
N2885      O2889   1.261       .  A
N2885      O2890   1.262       .  A
N2888      O2892   1.262       .  A
N2888      O2891   1.261       .  A
C2893      C2894   1.399       .  A
C2893      C2898   1.377       .  A
C2893      H2900   1.084       .  S
C2894      C2895   1.417       .  A
C2895      C2896   1.414       .  A
C2895      N2902   1.426       .  S
C2896      C2897   1.405       .  A
C2896      H2901   1.083       .  S
C2897      C2898   1.416       .  A
C2898      N2899   1.430       .  S
N2899      O2903   1.261       .  A
N2899      O2904   1.262       .  A
N2902      O2906   1.261       .  A
N2902      O2905   1.262       .  A
C2907      C2908   1.411       .  A
C2907      C2912   1.409       .  A
C2907      H2914   1.083       .  S
C2908      C2909   1.427       .  A
C2909      C2910   1.405       .  A
C2909      N2916   1.428       .  S
C2910      C2911   1.395       .  A
C2910      H2915   1.084       .  S
C2911      C2912   1.410       .  A
C2912      N2913   1.431       .  S
N2913      O2917   1.262       .  A
N2913      O2918   1.262       .  A
N2916      O2920   1.261       .  A
N2916      O2919   1.262       .  A
C2921      C2922   1.408       .  A
C2921      C2926   1.420       .  A
C2921      H2928   1.083       .  S
C2922      C2923   1.415       .  A
C2923      C2924   1.380       .  A
C2923      N2930   1.429       .  S
C2924      C2925   1.399       .  A
C2924      H2929   1.084       .  S
C2925      C2926   1.421       .  A
C2926      N2927   1.427       .  S
N2927      O2931   1.261       .  A
N2927      O2932   1.262       .  A
N2930      O2934   1.262       .  A
N2930      O2933   1.261       .  A
C2935      C2936   1.403       .  A
C2935      C2940   1.398       .  A
C2935      H2942   1.084       .  S
C2936      C2937   1.416       .  A
C2937      C2938   1.406       .  A
C2937      N2944   1.429       .  S
C2938      C2939   1.409       .  A
C2938      H2943   1.084       .  S
C2939      C2940   1.410       .  A
C2940      N2941   1.421       .  S
N2941      O2945   1.259       .  A
N2941      O2946   1.262       .  A
N2944      O2948   1.262       .  A
N2944      O2947   1.261       .  A
C2949      C2950   1.412       .  A
C2949      C2954   1.403       .  A
C2949      H2956   1.079       .  S
C2950      C2951   1.416       .  A
C2951      C2952   1.418       .  A
C2951      N2958   1.426       .  S
C2952      C2953   1.408       .  A
C2952      H2957   1.083       .  S
C2953      C2954   1.408       .  A
C2954      N2955   1.432       .  S
N2955      O2959   1.262       .  A
N2955      O2960   1.262       .  A
N2958      O2962   1.262       .  A
N2958      O2961   1.261       .  A
C2963      C2964   1.398       .  A
C2963      C2968   1.398       .  A
C2963      H2970   1.084       .  S
C2964      C2965   1.419       .  A
C2965      C2966   1.398       .  A
C2965      N2972   1.430       .  S
C2966      C2967   1.397       .  A
C2966      H2971   1.085       .  S
C2967      C2968   1.413       .  A
C2968      N2969   1.428       .  S
N2969      O2973   1.262       .  A
N2969      O2974   1.262       .  A
N2972      O2976   1.262       .  A
N2972      O2975   1.262       .  A
C2977      C2978   1.403       .  A
C2977      C2982   1.386       .  A
C2977      H2984   1.078       .  S
C2978      C2979   1.411       .  A
C2979      C2980   1.418       .  A
C2979      N2986   1.427       .  S
C2980      C2981   1.413       .  A
C2980      H2985   1.083       .  S
C2981      C2982   1.403       .  A
C2982      N2983   1.429       .  S
N2983      O2987   1.262       .  A
N2983      O2988   1.262       .  A
N2986      O2990   1.262       .  A
N2986      O2989   1.262       .  A
C2991      C2992   1.412       .  A
C2991      C2996   1.401       .  A
C2991      H2998   1.083       .  S
C2992      C2993   1.414       .  A
C2993      C2994   1.395       .  A
C2993      N3000   1.429       .  S
C2994      C2995   1.404       .  A
C2994      H2999   1.085       .  S
C2995      C2996   1.407       .  A
C2996      N2997   1.428       .  S
N2997      O3001   1.261       .  A
N2997      O3002   1.262       .  A
N3000      O3004   1.262       .  A
N3000      O3003   1.261       .  A
C3005      C3006   1.411       .  A
C3005      C3010   1.419       .  A
C3005      H3012   1.083       .  S
C3006      C3007   1.432       .  A
C3007      C3008   1.389       .  A
C3007      N3014   1.429       .  S
C3008      C3009   1.387       .  A
C3008      H3013   1.085       .  S
C3009      C3010   1.411       .  A
C3010      N3011   1.427       .  S
N3011      O3015   1.261       .  A
N3011      O3016   1.262       .  A
N3014      O3018   1.262       .  A
N3014      O3017   1.262       .  A
C3019      C3020   1.413       .  A
C3019      C3024   1.405       .  A
C3019      H3026   1.083       .  S
C3020      C3021   1.417       .  A
C3021      C3022   1.405       .  A
C3021      N3028   1.428       .  S
C3022      C3023   1.407       .  A
C3022      H3027   1.084       .  S
C3023      C3024   1.406       .  A
C3024      N3025   1.421       .  S
N3025      O3029   1.261       .  A
N3025      O3030   1.261       .  A
N3028      O3032   1.262       .  A
N3028      O3031   1.261       .  A
C3033      C3034   1.409       .  A
C3033      C3038   1.412       .  A
C3033      H3040   1.083       .  S
C3034      C3035   1.430       .  A
C3035      C3036   1.382       .  A
C3035      N3042   1.430       .  S
C3036      C3037   1.384       .  A
C3036      H3041   1.086       .  S
C3037      C3038   1.408       .  A
C3038      N3039   1.427       .  S
N3039      O3043   1.262       .  A
N3039      O3044   1.262       .  A
N3042      O3046   1.262       .  A
N3042      O3045   1.262       .  A
C3047      C3048   1.411       .  A
C3047      C3052   1.408       .  A
C3047      H3054   1.084       .  S
C3048      C3049   1.420       .  A
C3049      C3050   1.397       .  A
C3049      N3056   1.428       .  S
C3050      C3051   1.394       .  A
C3050      H3055   1.084       .  S
C3051      C3052   1.406       .  A
C3052      N3053   1.430       .  S
N3053      O3057   1.262       .  A
N3053      O3058   1.262       .  A
N3056      O3060   1.261       .  A
N3056      O3059   1.262       .  A
C3061      C3062   1.416       .  A
C3061      C3066   1.403       .  A
C3061      H3068   1.079       .  S
C3062      C3063   1.417       .  A
C3063      C3064   1.412       .  A
C3063      N3070   1.426       .  S
C3064      C3065   1.402       .  A
C3064      H3069   1.084       .  S
C3065      C3066   1.401       .  A
C3066      N3067   1.431       .  S
N3067      O3071   1.262       .  A
N3067      O3072   1.262       .  A
N3070      O3074   1.261       .  A
N3070      O3073   1.262       .  A
C3075      C3076   1.403       .  A
C3075      C3080   1.396       .  A
C3075      H3082   1.084       .  S
C3076      C3077   1.407       .  A
C3077      C3078   1.398       .  A
C3077      N3084   1.425       .  S
C3078      C3079   1.408       .  A
C3078      H3083   1.080       .  S
C3079      C3080   1.412       .  A
C3080      N3081   1.428       .  S
N3081      O3085   1.262       .  A
N3081      O3086   1.262       .  A
N3084      O3088   1.260       .  A
N3084      O3087   1.262       .  A
