geometry optimzed in LAMMPS
_audit_creation_date              2020-11-30 
_audit_creation_method            'lammps2cif' 
_symmetry_space_group_name_H-M    'P1' 
_symmetry_Int_Tables_number       1 
_symmetry_cell_setting            triclinic 
loop_ 
_symmetry_equiv_pos_as_xyz 
  x,y,z 
_cell_length_a                    28.844945848219716 
_cell_length_b                    28.770923129016445 
_cell_length_c                    71.97962865527039 
_cell_angle_alpha                 90.2181979833833 
_cell_angle_beta                  89.78232511577693 
_cell_angle_gamma                 119.7653066642031 
loop_ 
_atom_site_label 
_atom_site_type_symbol 
_atom_site_fract_x 
_atom_site_fract_y 
_atom_site_fract_z 
_atom_site_charge 
C1          C  0.67552562  0.10921641  0.73104531     0.02690
C2          C  0.72327240  0.12720342  0.72120097    -0.13460
C3          C  0.72466884  0.10244461  0.70469174     0.00190
C4          C  0.67761372  0.05940906  0.69773941    -0.11990
C5          C  0.62981379  0.03736447  0.70808349     0.02680
C6          C  0.62927957  0.06280414  0.72482712    -0.11410
H7          H  0.76013954  0.15961049  0.72674082     0.08270
H8          H  0.67912388  0.04130441  0.68468824     0.05800
H9          H  0.59374065  0.04562909  0.73338170     0.05650
C10         C  0.97939245  0.17073938  0.64389830     0.02690
C11         C  0.93225319  0.15107549  0.65428082    -0.13460
C12         C  0.93034005  0.17773479  0.67032435     0.00190
C13         C  0.97708066  0.22242815  0.67680122    -0.11990
C14         C  0.02469644  0.24226898  0.66668047     0.02680
C15         C  0.02576657  0.21637618  0.65023891    -0.11410
H16         H  0.89650532  0.11549637  0.64964376     0.08270
H17         H  0.97593755  0.24299850  0.68929223     0.05800
H18         H  0.06233002  0.23250262  0.64218899     0.05650
C19         C  0.56016870  0.83556426  0.80915179     0.02690
C20         C  0.58341468  0.81229741  0.82002413    -0.13460
C21         C  0.60937852  0.83641348  0.83663558     0.00190
C22         C  0.61150754  0.88388612  0.84257375    -0.11990
C23         C  0.58713595  0.90691597  0.83216717     0.02680
C24         C  0.56180581  0.88281668  0.81537837    -0.11410
H25         H  0.58159151  0.77545006  0.81551806     0.08270
H26         H  0.63237966  0.90307708  0.85529196     0.05800
H27         H  0.54418494  0.90128759  0.80703131     0.05650
C28         C  0.78950626  0.77097026  0.90207963     0.02690
C29         C  0.75095849  0.78045085  0.89371807    -0.13460
C30         C  0.72696184  0.75610360  0.87685730     0.00190
C31         C  0.73315937  0.71419235  0.86986164    -0.11990
C32         C  0.76626759  0.69909185  0.87901409     0.02680
C33         C  0.79744933  0.73021506  0.89408558    -0.11410
H34         H  0.73846312  0.80630951  0.90012758     0.08270
H35         H  0.71120969  0.69258547  0.85760308     0.05800
H36         H  0.82628116  0.72058540  0.89973472     0.05650
C37         C  0.90689114  0.57133966  0.50268652     0.02690
C38         C  0.93769555  0.55347080  0.51198026    -0.13460
C39         C  0.93685474  0.50652489  0.50625905     0.00190
C40         C  0.90312223  0.47608050  0.49176017    -0.11990
C41         C  0.87318819  0.49417825  0.48194978     0.02680
C42         C  0.87594856  0.54249993  0.48737113    -0.11410
H43         H  0.96370434  0.57709595  0.52323895     0.08270
H44         H  0.90153486  0.43895731  0.48775912     0.05800
H45         H  0.85582054  0.55889152  0.47930478     0.05650
C46         C  0.12814536  0.43983614  0.56637342     0.02690
C47         C  0.10439997  0.46331545  0.55568555    -0.13460
C48         C  0.06987963  0.43520759  0.54106285     0.00190
C49         C  0.06421179  0.38614186  0.53539888    -0.11990
C50         C  0.08997234  0.36353106  0.54516578     0.02680
C51         C  0.11921919  0.38889000  0.56119113    -0.11410
H52         H  0.11068375  0.50270767  0.55911881     0.08270
H53         H  0.03854268  0.36481073  0.52376631     0.05800
H54         H  0.13334613  0.36780330  0.56981008     0.05650
C55         C  0.66073504  0.49950999  0.98063064     0.02690
C56         C  0.61405400  0.47862504  0.99159941    -0.13460
C57         C  0.60960975  0.50859832  0.00618759     0.00190
C58         C  0.65267867  0.55915121  0.01040492    -0.11990
C59         C  0.70000414  0.58059363  0.99996546     0.02680
C60         C  0.70348557  0.55082517  0.98496966    -0.11410
H61         H  0.58034530  0.43952734  0.98850931     0.08270
H62         H  0.64885865  0.58234825  0.02160254     0.05800
H63         H  0.73914688  0.56828818  0.97647258     0.05650
C64         C  0.35404389  0.45423131  0.06556607     0.02690
C65         C  0.40413685  0.46745942  0.05812037    -0.13460
C66         C  0.40818032  0.43687604  0.04367331     0.00190
C67         C  0.36239123  0.39053785  0.03752184    -0.11990
C68         C  0.31122561  0.37762067  0.04404784     0.02680
C69         C  0.30796356  0.41126191  0.05775457    -0.11410
H70         H  0.44012315  0.50085418  0.06372507     0.08270
H71         H  0.36739829  0.36463947  0.02781573     0.05800
H72         H  0.26950057  0.40340207  0.06295270     0.05650
C73         C  0.00932688  0.78290954  0.39789344     0.02690
C74         C  0.05542060  0.80186204  0.38694045    -0.13460
C75         C  0.05596481  0.77349070  0.37117369     0.00190
C76         C  0.00906700  0.72717792  0.36575303    -0.11990
C77         C  0.96288291  0.70756263  0.37668726     0.02680
C78         C  0.96337997  0.73499992  0.39288025    -0.11410
H79         H  0.09162409  0.83777841  0.39107969     0.08270
H80         H  0.00926889  0.70494554  0.35359110     0.05800
H81         H  0.92855868  0.71812919  0.40184928     0.05650
C82         C  0.31540240  0.83398602  0.31357074     0.02690
C83         C  0.26587888  0.81803888  0.32191683    -0.13460
C84         C  0.26154783  0.84676845  0.33691456     0.00190
C85         C  0.30741486  0.89177014  0.34378176    -0.11990
C86         C  0.35776743  0.90782466  0.33590044     0.02680
C87         C  0.36115284  0.87824131  0.32081144    -0.11410
H88         H  0.23026590  0.78384434  0.31642987     0.08270
H89         H  0.30339904  0.91503749  0.35486795     0.05800
H90         H  0.39925524  0.89110174  0.31409724     0.05650
C91         C  0.20528952  0.16546737  0.14782405     0.02690
C92         C  0.20684688  0.21310234  0.15333789    -0.13460
C93         C  0.23542074  0.24057987  0.16927683     0.00190
C94         C  0.26349143  0.22077225  0.17935075    -0.11990
C95         C  0.26284571  0.17378459  0.17366879     0.02680
C96         C  0.23278851  0.14580788  0.15814982    -0.11410
H97         H  0.18698262  0.22934030  0.14502933     0.08270
H98         H  0.28706846  0.24278125  0.19129557     0.05800
H99         H  0.23207252  0.10936870  0.15375221     0.05650
C100        C  0.44980553  0.11219024  0.23703182     0.02690
C101        C  0.41699106  0.12745443  0.22773872    -0.13460
C102        C  0.38340376  0.09584942  0.21344168     0.00190
C103        C  0.38283425  0.04856827  0.20821182    -0.11990
C104        C  0.41647306  0.03290564  0.21698442     0.02680
C105        C  0.45060092  0.06593130  0.23113020    -0.11410
H106        H  0.41749866  0.16413346  0.23164495     0.08270
H107        H  0.35560068  0.02386018  0.19740652     0.05800
H108        H  0.47742115  0.05534295  0.23778318     0.05650
C109        C  0.14030962  0.65668402  0.81101016     0.02690
C110        C  0.16130864  0.70338868  0.82179628    -0.13460
C111        C  0.13416815  0.70563855  0.83767513     0.00190
C112        C  0.08531462  0.66074560  0.84258351    -0.11990
C113        C  0.06345471  0.61399078  0.83172453     0.02680
C114        C  0.09138247  0.61203031  0.81598826    -0.11410
H115        H  0.19821872  0.73837549  0.81756836     0.08270
H116        H  0.06402601  0.66234854  0.85479202     0.05800
H117        H  0.07475627  0.57615745  0.80749385     0.05650
C118        C  0.20482516  0.95517327  0.90386835     0.02690
C119        C  0.18487254  0.90757376  0.89367936    -0.13460
C120        C  0.21182744  0.90498456  0.87779870     0.00190
C121        C  0.25982172  0.95025370  0.87241118    -0.11990
C122        C  0.28049520  0.99825647  0.88256208     0.02680
C123        C  0.25196527  0.00067108  0.89808909    -0.11410
H124        H  0.14884279  0.87225976  0.89831413     0.08270
H125        H  0.28142351  0.94784147  0.86043229     0.05800
H126        H  0.26668937  0.03769368  0.90583591     0.05650
C127        C  0.79545338  0.73669395  0.64116348     0.02690
C128        C  0.82259658  0.71843877  0.65234677    -0.13460
C129        C  0.80301828  0.69765574  0.66997626     0.00190
C130        C  0.75813257  0.69875050  0.67700158    -0.11990
C131        C  0.72956971  0.71625755  0.66589407     0.02680
C132        C  0.74748630  0.73241647  0.64756435    -0.11410
H133        H  0.85930039  0.72081660  0.64746169     0.08270
H134        H  0.74527156  0.68473082  0.69101235     0.05800
H135        H  0.72465558  0.74223061  0.63809553     0.05650
C136        C  0.86518737  0.51579301  0.73524315     0.02690
C137        C  0.85124225  0.54948006  0.72586644    -0.13460
C138        C  0.88087924  0.57836405  0.71039861     0.00190
C139        C  0.92627882  0.57574413  0.70501192    -0.11990
C140        C  0.94052097  0.54165020  0.71428733     0.02680
C141        C  0.90766884  0.50963716  0.72880511    -0.11410
H142        H  0.81730041  0.55295827  0.73052288     0.08270
H143        H  0.95047434  0.60064830  0.69364360     0.05800
H144        H  0.91542750  0.48050768  0.73543469     0.05650
C145        C  0.47195390  0.30915579  0.48308612     0.02690
C146        C  0.49450761  0.35552188  0.49398430    -0.13460
C147        C  0.46861798  0.35822098  0.51008409     0.00190
C148        C  0.42020965  0.31364661  0.51551943    -0.11990
C149        C  0.39749082  0.26681800  0.50476556     0.02680
C150        C  0.42349553  0.26464139  0.48852060    -0.11410
H151        H  0.53088079  0.39055459  0.48938399     0.08270
H152        H  0.39915885  0.31619296  0.52764372     0.05800
H153        H  0.40535101  0.22904942  0.47988010     0.05650
C154        C  0.53585311  0.61434281  0.56997790     0.02690
C155        C  0.51765302  0.56630499  0.56028141    -0.13460
C156        C  0.54466176  0.56393431  0.54449722     0.00190
C157        C  0.59104274  0.60981666  0.53858106    -0.11990
C158        C  0.61063461  0.65813131  0.54847000     0.02680
C159        C  0.58227737  0.66048548  0.56403532    -0.11410
H160        H  0.48243523  0.53046268  0.56512104     0.08270
H161        H  0.61229272  0.60771859  0.52644157     0.05800
H162        H  0.59716244  0.69744709  0.57183864     0.05650
C163        C  0.46783551  0.08159969  0.97543532     0.02690
C164        C  0.48930814  0.05613089  0.98602336    -0.13460
C165        C  0.46348153  0.02823546  0.00213029     0.00190
C166        C  0.41593253  0.02585753  0.00779271    -0.11990
C167        C  0.39265711  0.04938518  0.99703009     0.02680
C168        C  0.41889034  0.07730896  0.98079742    -0.11410
H169        H  0.52632843  0.05808578  0.98175568     0.08270
H170        H  0.39697864  0.00540661  0.02059009     0.05800
H171        H  0.40108605  0.09526949  0.97228935     0.05650
C172        C  0.61686626  0.89556147  0.05029097     0.02690
C173        C  0.58996152  0.86928827  0.06663409    -0.13460
C174        C  0.53997840  0.86418110  0.07119515     0.00190
C175        C  0.51715723  0.88495447  0.05894638    -0.11990
C176        C  0.54462467  0.91281158  0.04300092     0.02680
C177        C  0.59396126  0.91740718  0.03860118    -0.11410
H178        H  0.60828301  0.85337004  0.07584460     0.08270
H179        H  0.47809956  0.87999448  0.06184185     0.05800
H180        H  0.61461318  0.93819405  0.02604565     0.05650
C181        C  0.19013344  0.18178511  0.40125800     0.02690
C182        C  0.17062095  0.21009492  0.39119618    -0.13460
C183        C  0.19755446  0.23925849  0.37529206     0.00190
C184        C  0.24546710  0.24146719  0.36992359    -0.11990
C185        C  0.26596714  0.21425011  0.38012316     0.02680
C186        C  0.23776576  0.18378666  0.39561819    -0.11410
H187        H  0.13469890  0.20978876  0.39586283     0.08270
H188        H  0.26736784  0.26513979  0.35797913     0.05800
H189        H  0.25390892  0.16339798  0.40369779     0.05650
C190        C  0.12860438  0.42200658  0.31044219     0.02690
C191        C  0.08227626  0.42160360  0.31675566    -0.13460
C192        C  0.05543759  0.39212810  0.33264250     0.00190
C193        C  0.07547057  0.36337565  0.34216899    -0.11990
C194        C  0.12214501  0.36419307  0.33609526     0.02680
C195        C  0.14815042  0.39309422  0.32006411    -0.11410
H196        H  0.06656638  0.44312570  0.30911068     0.08270
H197        H  0.05454742  0.34017364  0.35432221     0.05800
H198        H  0.18344553  0.39283498  0.31498120     0.05650
C199        C  0.86142262  0.29092777  0.23653320     0.02690
C200        C  0.84455664  0.24189029  0.22753125    -0.13460
C201        C  0.87365174  0.23836744  0.21245316     0.00190
C202        C  0.91987601  0.28470667  0.20640129    -0.11990
C203        C  0.93536680  0.33510484  0.21439648     0.02680
C204        C  0.90497746  0.33747867  0.22940864    -0.11410
H205        H  0.80915519  0.20639155  0.23242344     0.08270
H206        H  0.94413217  0.28086414  0.19567673     0.05800
H207        H  0.91560449  0.37542867  0.23595060     0.05650
C208        C  0.80541328  0.98975542  0.14561332     0.02690
C209        C  0.82486699  0.03684886  0.15608925    -0.13460
C210        C  0.79666043  0.03922750  0.17163824     0.00190
C211        C  0.74978524  0.99281248  0.17718370    -0.11990
C212        C  0.73011128  0.94470211  0.16703006     0.02680
C213        C  0.75804685  0.94376380  0.15106637    -0.11410
H214        H  0.86166710  0.07204305  0.15191207     0.08270
H215        H  0.72790552  0.99444529  0.18920941     0.05800
H216        H  0.74238673  0.90782007  0.14265136     0.05650
C217        C  0.54431816  0.65305249  0.31220041     0.02690
C218        C  0.56956238  0.70067037  0.32252552    -0.13460
C219        C  0.59698512  0.70354778  0.33892488     0.00190
C220        C  0.59860919  0.65828672  0.34512338    -0.11990
C221        C  0.57372408  0.61051705  0.33496802     0.02680
C222        C  0.54664519  0.60793910  0.31841901    -0.11410
H223        H  0.56868420  0.73580444  0.31761647     0.08270
H224        H  0.62135378  0.66093216  0.35743461     0.05800
H225        H  0.52814581  0.57131758  0.31031716     0.05650
C226        C  0.77938976  0.95248972  0.40374900     0.02690
C227        C  0.75233515  0.90507026  0.39347865    -0.13460
C228        C  0.72631305  0.90387484  0.37696786     0.00190
C229        C  0.72789614  0.95064772  0.37068850    -0.11990
C230        C  0.75343431  0.99840472  0.38107585     0.02680
C231        C  0.77854890  0.99859789  0.39785810    -0.11410
H232        H  0.75182748  0.86914332  0.39827932     0.08270
H233        H  0.70756126  0.94919048  0.35789196     0.05800
H234        H  0.79650034  0.03391993  0.40658892     0.05650
C235        C  0.45109769  0.27639079  0.73625361     0.02690
C236        C  0.44773611  0.32166805  0.73092627    -0.13460
C237        C  0.41704147  0.31933708  0.71544537     0.00190
C238        C  0.38960018  0.27144558  0.70535238    -0.11990
C239        C  0.39182829  0.22577730  0.71071627     0.02680
C240        C  0.42317261  0.22870664  0.72603180    -0.11410
H241        H  0.46840995  0.35836645  0.73892319     0.08270
H242        H  0.36549024  0.26942519  0.69352671     0.05800
H243        H  0.42520724  0.19358662  0.73017818     0.05650
C244        C  0.21379416  0.97909269  0.64309355     0.02690
C245        C  0.24137385  0.02680110  0.65327369    -0.13460
C246        C  0.27204692  0.02967432  0.66876474     0.00190
C247        C  0.27378150  0.98392209  0.67428800    -0.11990
C248        C  0.24705356  0.93611072  0.66407966     0.02680
C249        C  0.21636601  0.93359689  0.64857884    -0.11410
H250        H  0.23927554  0.06181713  0.64902775     0.08270
H251        H  0.29728617  0.98593049  0.68629896     0.05800
H252        H  0.19591529  0.89700061  0.64051692     0.05650
C253        C  0.68805600  0.05156947  0.49889158     0.02690
C254        C  0.68990570  0.08503879  0.48435512    -0.13460
C255        C  0.64381084  0.08655957  0.47908383     0.00190
C256        C  0.59606654  0.05556506  0.48883806    -0.11990
C257        C  0.59408967  0.02297756  0.50354599     0.02680
C258        C  0.63988491  0.02089882  0.50851657    -0.11410
H259        H  0.72691970  0.10906609  0.47687687     0.08270
H260        H  0.56029580  0.05651950  0.48491136     0.05800
H261        H  0.63778598  0.99499102  0.51977365     0.05650
C262        C  0.34941438  0.85682750  0.57177044     0.02690
C263        C  0.39732127  0.88526089  0.56167153    -0.13460
C264        C  0.39761924  0.90479422  0.54395184     0.00190
C265        C  0.35061355  0.89919323  0.53645609    -0.11990
C266        C  0.30379924  0.87798038  0.54715961     0.02680
C267        C  0.30259528  0.85351143  0.56430991    -0.11410
H268        H  0.43477887  0.89185231  0.56741359     0.08270
H269        H  0.35136037  0.91367908  0.52253573     0.05800
H270        H  0.26533660  0.83203059  0.57175709     0.05650
C271        C  0.67934777  0.52357855  0.23804606     0.02690
C272        C  0.63345146  0.52035484  0.22996430    -0.13460
C273        C  0.63675245  0.54826890  0.21349061     0.00190
C274        C  0.68525081  0.57265449  0.20371848    -0.11990
C275        C  0.73132145  0.57652582  0.21153094     0.02680
C276        C  0.72856865  0.55363820  0.22886969    -0.11410
H277        H  0.59521083  0.49640032  0.23653437     0.08270
H278        H  0.68775649  0.58994050  0.19016413     0.05800
H279        H  0.76511263  0.55923338  0.23511815     0.05650
C280        C  0.98129517  0.75793322  0.14719057     0.02690
C281        C  0.93306707  0.72684930  0.15685382    -0.13460
C282        C  0.93236456  0.70391523  0.17406513     0.00190
C283        C  0.97945018  0.70823486  0.18107821    -0.11990
C284        C  0.02684598  0.73292410  0.17067308     0.02680
C285        C  0.02810994  0.75999902  0.15420949    -0.11410
H286        H  0.89557498  0.71938725  0.15093414     0.08270
H287        H  0.97854814  0.69038606  0.19439880     0.05800
H288        H  0.06538171  0.78153427  0.14667970     0.05650
C289        C  0.90098787  0.32907461  0.97532300     0.02690
C290        C  0.92337607  0.37589378  0.98605745    -0.13460
C291        C  0.94787236  0.37799453  0.00297726     0.00190
C292        C  0.94783876  0.33256299  0.00974432    -0.11990
C293        C  0.92793143  0.28604202  0.99887046     0.02680
C294        C  0.90392984  0.28442521  0.98168609    -0.11410
H295        H  0.92166563  0.41073269  0.98133376     0.08270
H296        H  0.96484310  0.33420376  0.02328430     0.05800
H297        H  0.88775706  0.24861756  0.97317885     0.05650
C298        C  0.12177634  0.62356374  0.06923446     0.02690
C299        C  0.09354339  0.57594550  0.05915033    -0.13460
C300        C  0.06752777  0.57515610  0.04275411     0.00190
C301        C  0.07073210  0.62220432  0.03613148    -0.11990
C302        C  0.09729044  0.66995984  0.04641133     0.02680
C303        C  0.12212361  0.67010038  0.06320248    -0.11410
H304        H  0.09147116  0.53943718  0.06413492     0.08270
H305        H  0.05082802  0.62107465  0.02325077     0.05800
H306        H  0.14107763  0.70591546  0.07169730     0.05650
C307        C  0.36699359  0.38494002  0.83065568     0.02690
C308        C  0.31749818  0.34669666  0.83849872    -0.13460
C309        C  0.26929978  0.34132023  0.83195987     0.00190
C310        C  0.26950698  0.36857725  0.81594029    -0.11990
C311        C  0.31763876  0.40650000  0.80803504     0.02680
C312        C  0.36596251  0.41732670  0.81622276    -0.11410
H313        H  0.31582415  0.32173961  0.84996389     0.08270
H314        H  0.23211377  0.36206029  0.81011567     0.05800
H315        H  0.40222687  0.45145883  0.81131816     0.05650
C316        C  0.03010085  0.19391923  0.90291885     0.02690
C317        C  0.07359336  0.20833232  0.89100967    -0.13460
C318        C  0.07247123  0.22477415  0.87285293     0.00190
C319        C  0.02636552  0.22388229  0.86623562    -0.11990
C320        C  0.98378530  0.21340307  0.87824154     0.02680
C321        C  0.98622468  0.19826480  0.89666565    -0.11410
H322        H  0.10839354  0.20693174  0.89584124     0.08270
H323        H  0.02482450  0.23299072  0.85176844     0.05800
H324        H  0.95378469  0.18923175  0.90623922     0.05650
O325        O  0.72748528  0.24876069  0.80772682    -0.86930
O326        O  0.50543436  0.21604826  0.87252224    -0.87100
O327        O  0.59281048  0.13124457  0.84163794    -0.88770
O328        O  0.56191215  0.24013718  0.80947355    -0.87520
O329        O  0.59780821  0.33160862  0.80909349    -0.87110
O330        O  0.64728708  0.14056053  0.86623875    -0.88480
O331        O  0.50951473  0.17078427  0.84677252    -0.86960
O332        O  0.63623501  0.19448906  0.80864399    -0.86550
Zr333      Zr  0.60211760  0.21887761  0.83548245     2.84310
O334        O  0.59123972  0.29004107  0.84595919    -1.08520
O335        O  0.68475141  0.23059208  0.84533108    -1.09250
C336        C  0.68257342  0.21055404  0.80134376     1.06180
C337        C  0.48491527  0.17674293  0.86086997     1.06120
C338        C  0.61550810  0.11363048  0.85280664     1.09100
C339        C  0.56690622  0.28385330  0.80265979     1.06880
H340        H  0.57696456  0.18628938  0.87259315     0.32440
O341        O  0.60445480  0.22029588  0.86788164    -1.29480
H342        H  0.67108412  0.29957885  0.81076179     0.32110
O343        O  0.67204237  0.30005130  0.82417082    -1.31150
O344        O  0.61863684  0.35186331  0.90542613    -0.86930
O345        O  0.84150126  0.39146730  0.83948377    -0.88420
O346        O  0.62418895  0.19316433  0.90383347    -0.87000
O347        O  0.58832905  0.38585438  0.84270450    -0.87050
O348        O  0.72122452  0.40834916  0.80837046    -0.86760
O349        O  0.76375633  0.22160789  0.87157511    -0.86570
O350        O  0.78503812  0.36091179  0.90329492    -0.86940
O351        O  0.75535547  0.47107120  0.87129780    -0.86400
O352        O  0.74597888  0.26939388  0.90408796    -0.87470
O353        O  0.70788909  0.46585447  0.84505064    -0.86630
O354        O  0.57141847  0.23216538  0.90464173    -0.87020
O355        O  0.80429716  0.26763546  0.84500756    -0.86750
O356        O  0.77587228  0.37120261  0.80765562    -0.86400
O357        O  0.54422751  0.33656863  0.86824335    -0.86800
O358        O  0.70952011  0.40549744  0.90531703    -0.87100
O359        O  0.83427111  0.43568272  0.86505534    -0.88440
Zr360      Zr  0.59336661  0.29172198  0.87844071     2.83100
Zr361      Zr  0.75453380  0.31160241  0.83415696     2.83500
Zr362      Zr  0.68672694  0.23242522  0.87777385     2.84090
Zr363      Zr  0.66145817  0.37122946  0.83488794     2.83360
Zr364      Zr  0.74416111  0.38359495  0.87768776     2.84220
O365        O  0.74275362  0.38184867  0.84519853    -1.09010
O366        O  0.67494972  0.30253544  0.88875306    -1.08510
C367        C  0.66280021  0.38912662  0.91249502     1.06150
C368        C  0.85979787  0.43134978  0.85097449     1.08770
C369        C  0.58655738  0.19990152  0.91088057     1.06320
C370        C  0.54981323  0.36812459  0.85460012     1.06680
C371        C  0.75878950  0.40184445  0.80128408     1.06270
C372        C  0.80108171  0.23848251  0.85922389     1.05820
C373        C  0.77774975  0.31658159  0.91048688     1.06240
C374        C  0.73777108  0.49134518  0.85915622     1.05760
H375        H  0.79093328  0.32079621  0.87108903     0.32430
O376        O  0.75655259  0.31407313  0.86671781    -1.30110
H377        H  0.65622212  0.40072621  0.87213341     0.32460
O378        O  0.66225944  0.37269574  0.86744011    -1.31490
O379        O  0.93837425  0.86991025  0.97619784    -0.86930
O380        O  0.97556453  0.10604615  0.03452831    -0.87100
O381        O  0.84355768  0.94377628  0.01472517    -0.88770
O382        O  0.97229387  0.04696534  0.97694807    -0.87520
O383        O  0.06358271  0.08643119  0.97710447    -0.87110
O384        O  0.83718082  0.89408509  0.04056306    -0.88480
O385        O  0.92567739  0.06313090  0.00876161    -0.86960
O386        O  0.89622859  0.91936817  0.97704480    -0.86550
Zr387      Zr  0.93530342  0.98522907  0.00283845     2.84310
O388        O  0.01661372  0.05585902  0.01373187    -1.08520
O389        O  0.92508236  0.90475520  0.01378076    -1.09250
C390        C  0.90434955  0.88230432  0.96994724     1.06180
C391        C  0.94545015  0.10195904  0.02060548     1.06120
C392        C  0.81806456  0.91386403  0.02878679     1.09100
C393        C  0.01898497  0.07912603  0.97025338     1.06880
H394        H  0.90936893  0.99399030  0.04024096     0.32440
O395        O  0.93666138  0.98704529  0.03547466    -1.29480
H396        H  0.00662791  0.97603573  0.97844311     0.32110
O397        O  0.00683300  0.97616028  0.99185853    -1.31150
O398        O  0.07764608  0.07835071  0.07253387    -0.86930
O399        O  0.03949074  0.84518553  0.01280434    -0.88420
O400        O  0.90515496  0.94256671  0.07355577    -0.87000
O401        O  0.13550604  0.14125989  0.01331482    -0.87050
O402        O  0.11093765  0.01055591  0.97606928    -0.86760
O403        O  0.87306249  0.81354596  0.03456212    -0.86570
O404        O  0.03999123  0.90099107  0.07188125    -0.86940
O405        O  0.16745819  0.00351166  0.03357304    -0.86400
O406        O  0.94886642  0.86448149  0.07169504    -0.87470
O407        O  0.17516949  0.05607385  0.00846814    -0.86630
O408        O  0.95639296  0.03435467  0.07246763    -0.87020
O409        O  0.91503154  0.80922541  0.00799520    -0.86750
O410        O  0.05833669  0.91880516  0.97673732    -0.86400
O411        O  0.09158037  0.14517478  0.03919125    -0.86800
O412        O  0.11383986  0.02283700  0.07238738    -0.87100
O413        O  0.08919612  0.88685002  0.03872080    -0.88440
Zr414      Zr  0.01802070  0.05643135  0.04614298     2.83100
Zr415      Zr  0.99599986  0.89481081  0.00277326     2.83500
Zr416      Zr  0.92512373  0.90513121  0.04629031     2.84090
Zr417      Zr  0.08803066  0.04714010  0.00281858     2.83360
Zr418      Zr  0.07642843  0.96266556  0.04576484     2.84220
O419        O  0.07687688  0.96500607  0.01333709    -1.09010
O420        O  0.00679690  0.97483087  0.05689375    -1.08510
C421        C  0.10759053  0.06095627  0.07924610     1.06150
C422        C  0.06963689  0.84872425  0.02657812     1.08770
C423        C  0.92033672  0.99004096  0.07986401     1.06320
C424        C  0.12963253  0.16682739  0.02718869     1.06680
C425        C  0.09534159  0.96308942  0.96969210     1.06270
C426        C  0.87637597  0.78919689  0.01992032     1.05820
C427        C  0.99275753  0.86945720  0.07836348     1.06240
C428        C  0.19344413  0.03438806  0.01979714     1.05760
H429        H  0.98798381  0.85809100  0.03951619     0.32430
O430        O  0.99441106  0.89254018  0.03523004    -1.30110
H431        H  0.12284535  0.07345040  0.03995760     0.32460
O432        O  0.08892613  0.04541261  0.03539764    -1.31490
O433        O  0.73298636  0.40480043  0.40790010    -0.86930
O434        O  0.69558474  0.17508109  0.34649222    -0.87100
O435        O  0.69527997  0.23345527  0.40659093    -0.88770
O436        O  0.82401364  0.33253168  0.36760298    -0.87520
O437        O  0.83244307  0.38736067  0.34311867    -0.87110
O438        O  0.60384907  0.19438710  0.40565782    -0.88480
O439        O  0.74276535  0.21430862  0.37308633    -0.86960
O440        O  0.77064648  0.35095077  0.40663116    -0.86550
Zr441      Zr  0.73262140  0.29177093  0.37980385     2.84310
O442        O  0.73406783  0.29512336  0.34737089    -1.08520
O443        O  0.66248728  0.30320837  0.39065311    -1.09250
C444        C  0.76370827  0.38783347  0.41422458     1.06180
C445        C  0.72407486  0.17697528  0.36064513     1.06120
C446        C  0.64794456  0.20162264  0.41290403     1.09100
C447        C  0.85031541  0.36454187  0.35409269     1.06880
H448        H  0.64386916  0.18800720  0.37305601     0.32440
O449        O  0.65062186  0.22261666  0.36882944    -1.29480
H450        H  0.77954779  0.40213281  0.37474169     0.32110
O451        O  0.74544254  0.37482724  0.37008518    -1.31150
O452        O  0.59275654  0.20577379  0.31042314    -0.86930
O453        O  0.63332514  0.43831465  0.37105574    -0.88420
O454        O  0.53137174  0.14193806  0.36779570    -0.87000
O455        O  0.76918166  0.34325299  0.31051009    -0.87050
O456        O  0.79266543  0.47042809  0.34836008    -0.86760
O457        O  0.56082238  0.26885445  0.40750431    -0.86570
O458        O  0.50074074  0.27664508  0.34898222    -0.86940
O459        O  0.62889980  0.37918335  0.31172117    -0.86400
O460        O  0.49247566  0.22294769  0.37379415    -0.87470
O461        O  0.72016652  0.41689862  0.31200759    -0.86630
O462        O  0.57636318  0.13886412  0.34198711    -0.87020
O463        O  0.61533878  0.36042635  0.40819336    -0.86750
O464        O  0.75181321  0.47489146  0.37528077    -0.86400
O465        O  0.71445477  0.25184426  0.30978713    -0.86800
O466        O  0.55261527  0.25730289  0.31191121    -0.87100
O467        O  0.58633547  0.39804325  0.34446505    -0.88440
Zr468      Zr  0.65300886  0.22633765  0.33637259     2.83100
Zr469      Zr  0.67521387  0.38646329  0.38127697     2.83500
Zr470      Zr  0.58065216  0.23402053  0.37980993     2.84090
Zr471      Zr  0.74494415  0.37759710  0.33754686     2.83360
Zr472      Zr  0.59321339  0.31895005  0.33797944     2.84220
O473        O  0.67491763  0.38840549  0.34886681    -1.09010
O474        O  0.58189565  0.23646691  0.34741009    -1.08510
C475        C  0.55990804  0.22048064  0.30446447     1.06150
C476        C  0.60509682  0.43569464  0.35673669     1.08770
C477        C  0.53690602  0.11770300  0.35346680     1.06320
C478        C  0.75257744  0.29653271  0.30328673     1.06680
C479        C  0.78870539  0.49530279  0.36273163     1.06270
C480        C  0.57828148  0.31546458  0.41485983     1.05820
C481        C  0.47408594  0.24424686  0.36232628     1.06240
C482        C  0.67597677  0.41048339  0.30513229     1.05760
H483        H  0.56556919  0.32420439  0.37540137     0.32430
O484        O  0.59306564  0.31776569  0.37048439    -1.30110
H485        H  0.66347180  0.30909620  0.31306660     0.32460
O486        O  0.66356759  0.30835355  0.32647560    -1.31490
O487        O  0.46407762  0.79381563  0.67821040    -0.86930
O488        O  0.23278851  0.60251258  0.73863396    -0.87100
O489        O  0.30644573  0.76441935  0.69910525    -0.88770
O490        O  0.40784299  0.73771147  0.73740373    -0.87520
O491        O  0.44387536  0.68230469  0.73786900    -0.87110
O492        O  0.25151015  0.71752124  0.67476850    -0.88480
O493        O  0.28669952  0.69403560  0.73750272    -0.86960
O494        O  0.42212493  0.80282593  0.70397753    -0.86550
Zr495      Zr  0.34775697  0.71424781  0.71128369     2.84310
O496        O  0.33601648  0.63285274  0.72270963    -1.08520
O497        O  0.34630938  0.71152348  0.67898805    -1.09250
C498        C  0.45969503  0.82143751  0.69164865     1.06180
C499        C  0.24920007  0.65043358  0.74475674     1.06120
C500        C  0.27378157  0.75814248  0.68580095     1.09100
C501        C  0.43806262  0.72115480  0.74441251     1.06880
H502        H  0.23736630  0.65092323  0.70583468     0.32440
O503        O  0.26523811  0.64446239  0.70132519    -1.29480
H504        H  0.45160963  0.72887286  0.70520810     0.32110
O505        O  0.41743730  0.70075371  0.70087299    -1.31150
O506        O  0.20325721  0.46984078  0.70151029    -0.86930
O507        O  0.43614834  0.66124977  0.64151669    -0.88420
O508        O  0.17030834  0.59574630  0.67945647    -0.87000
O509        O  0.36722696  0.55872007  0.73821224    -0.87050
O510        O  0.49659530  0.66080695  0.70089539    -0.86760
O511        O  0.30109189  0.70518720  0.64338104    -0.86570
O512        O  0.26627603  0.52692405  0.64203921    -0.86940
O513        O  0.36409565  0.49641492  0.68051500    -0.86400
O514        O  0.22877542  0.58073368  0.64236516    -0.87470
O515        O  0.41592998  0.54092353  0.70580734    -0.86630
O516        O  0.16608635  0.54755775  0.70528725    -0.87020
O517        O  0.39217720  0.74149621  0.64345011    -0.86750
O518        O  0.50368905  0.70884621  0.67475044    -0.86400
O519        O  0.27615339  0.52356614  0.73835237    -0.86800
O520        O  0.24371337  0.46296361  0.67486276    -0.87100
O521        O  0.38587812  0.56952132  0.64328011    -0.88440
Zr522      Zr  0.25420938  0.56286032  0.71230434     2.83100
Zr523      Zr  0.41629921  0.69975371  0.66840541     2.83500
Zr524      Zr  0.26402198  0.64147199  0.66883973     2.84090
Zr525      Zr  0.40480237  0.61878244  0.71194120     2.83360
Zr526      Zr  0.32339841  0.54830248  0.66908632     2.84220
O527        O  0.40512612  0.61815144  0.67943763    -1.09010
O528        O  0.25344471  0.56066917  0.67985524    -1.08510
C529        C  0.20597416  0.44436420  0.68707322     1.06150
C530        C  0.42159914  0.61348859  0.63565150     1.08770
C531        C  0.14504385  0.56479661  0.69334632     1.06320
C532        C  0.32000224  0.52843342  0.74486306     1.06680
C533        C  0.52300586  0.69014098  0.68695186     1.06270
C534        C  0.34835044  0.73710523  0.63698995     1.05820
C535        C  0.23590779  0.54362381  0.63514228     1.06240
C536        C  0.39505852  0.50119267  0.69424922     1.05760
H537        H  0.33444760  0.62981965  0.64455199     0.32430
O538        O  0.33438277  0.62972428  0.65796488    -1.30110
H539        H  0.31563273  0.51460968  0.70625789     0.32460
O540        O  0.32259974  0.54886410  0.70156764    -1.31490
O541        O  0.29437790  0.53526084  0.14211073    -0.86930
O542        O  0.49652754  0.77017142  0.20007982    -0.87100
O543        O  0.43639280  0.70952507  0.14287601    -0.88770
O544        O  0.45987874  0.60429044  0.18031685    -0.87520
O545        O  0.41770760  0.55616077  0.20643820    -0.87110
O546        O  0.38410725  0.74872723  0.14272180    -0.88480
O547        O  0.50185027  0.72573808  0.17427761    -0.86960
O548        O  0.38567299  0.58904186  0.14170436    -0.86550
Zr549      Zr  0.41225419  0.64919536  0.16885178     2.84310
O550        O  0.41350457  0.64903561  0.20130489    -1.08520
O551        O  0.33053469  0.63887817  0.15868578    -1.09250
C552        C  0.34098972  0.55176436  0.13484965     1.06180
C553        C  0.52166821  0.76531069  0.18591920     1.06120
C554        C  0.42181888  0.74136386  0.13596954     1.09100
C555        C  0.45565739  0.57426067  0.19433491     1.06880
H556        H  0.42982982  0.75457504  0.17478016     0.32440
O557        O  0.40201820  0.72074951  0.17947280    -1.29480
H558        H  0.34758938  0.54043626  0.17487010     0.32110
O559        O  0.34179934  0.56845200  0.17969261    -1.31150
O560        O  0.37060934  0.74632265  0.23869731    -0.86930
O561        O  0.16735659  0.51061362  0.18171741    -0.88420
O562        O  0.36379886  0.80338046  0.18058281    -0.87000
O563        O  0.40080509  0.60370861  0.23898692    -0.87050
O564        O  0.29850051  0.47585624  0.20097407    -0.86760
O565        O  0.26039181  0.67329435  0.14285760    -0.86570
O566        O  0.20581428  0.67841131  0.20264650    -0.86940
O567        O  0.22949332  0.57327892  0.23935907    -0.86400
O568        O  0.24656163  0.72638095  0.17630398    -0.87470
O569        O  0.27717880  0.52883831  0.23770747    -0.86630
O570        O  0.41383677  0.80788636  0.20589018    -0.87020
O571        O  0.22195038  0.58147924  0.14345541    -0.86750
O572        O  0.24653794  0.46869525  0.17577863    -0.86400
O573        O  0.44265322  0.69570131  0.23793829    -0.86800
O574        O  0.27905665  0.69632193  0.23817669    -0.87100
O575        O  0.16426774  0.55797699  0.20682592    -0.88440
Zr576      Zr  0.40458934  0.72085792  0.21194884     2.83100
Zr577      Zr  0.25967054  0.55773687  0.16958748     2.83500
Zr578      Zr  0.32099657  0.71103512  0.16903470     2.84090
Zr579      Zr  0.34173029  0.56841857  0.21226395     2.83360
Zr580      Zr  0.25305214  0.63213224  0.21262091     2.84220
O581        O  0.26077895  0.55906905  0.20206331    -1.09010
O582        O  0.32361183  0.71198808  0.20152814    -1.08510
C583        C  0.32377126  0.73276588  0.24512871     1.06150
C584        C  0.14287648  0.51765479  0.19568504     1.08770
C585        C  0.39443340  0.82839067  0.19451125     1.06320
C586        C  0.43378882  0.65089737  0.24521868     1.06680
C587        C  0.26703726  0.44975258  0.18734482     1.06270
C588        C  0.22898938  0.62584523  0.13648535     1.05820
C589        C  0.20958907  0.70888746  0.18888758     1.06240
C590        C  0.24185759  0.53844287  0.24512000     1.05760
H591        H  0.21624937  0.62425311  0.17584960     0.32430
O592        O  0.25029665  0.62973100  0.18011752    -1.30110
H593        H  0.33369907  0.64098132  0.23659213     0.32460
O594        O  0.33348521  0.64072039  0.22317814    -1.31490
O595        O  0.03207393  0.07271730  0.57146495    -0.86930
O596        O  0.83758238  0.83577352  0.51377005    -0.87100
O597        O  0.86600104  0.00077485  0.53369883    -0.88770
O598        O  0.89094455  0.89598281  0.57056633    -0.87520
O599        O  0.94309393  0.85641146  0.56990227    -0.87110
O600        O  0.90879107  0.04780947  0.50745193    -0.88480
O601        O  0.82875528  0.88079279  0.53878166    -0.86960
O602        O  0.94066979  0.02124465  0.57095594    -0.86550
Zr603      Zr  0.91609077  0.95806760  0.54484444     2.84310
O604        O  0.92749662  0.88729737  0.53410941    -1.08520
O605        O  0.98675842  0.03881757  0.53420087    -1.09250
C606        C  0.98524246  0.05777839  0.57809478     1.06180
C607        C  0.81109969  0.84088693  0.52738700     1.06120
C608        C  0.87012165  0.02956341  0.51934511     1.09100
C609        C  0.90546156  0.86324972  0.57682560     1.06880
H610        H  0.88172196  0.94937285  0.50772026     0.32440
O611        O  0.91585650  0.95609377  0.51234721    -1.29480
H612        H  0.99663849  0.96788672  0.56925659     0.32110
O613        O  0.99704302  0.96816091  0.55584126    -1.31150
O614        O  0.96620047  0.86835283  0.47440162    -0.86930
O615        O  0.16151125  0.09717890  0.53520048    -0.88420
O616        O  0.92870492  0.00121658  0.47484614    -0.87000
O617        O  0.96606552  0.80527721  0.53360853    -0.87050
O618        O  0.06498702  0.93219883  0.57192089    -0.86760
O619        O  0.02620812  0.12880581  0.51335879    -0.86570
O620        O  0.10148241  0.03817530  0.47494220    -0.86940
O621        O  0.12785299  0.93489739  0.51331969    -0.86400
O622        O  0.04860758  0.07714021  0.47577910    -0.87470
O623        O  0.08489934  0.88628429  0.53926732    -0.86630
O624        O  0.88733845  0.90938662  0.47616134    -0.87020
O625        O  0.07801033  0.13673119  0.53870536    -0.86750
O626        O  0.10654010  0.02407897  0.57091616    -0.86400
O627        O  0.91684604  0.79833423  0.50762327    -0.86800
O628        O  0.05751773  0.92068898  0.47495214    -0.87100
O629        O  0.16784384  0.05606042  0.50861420    -0.88440
Zr630      Zr  0.92845754  0.88665221  0.50168826     2.83100
Zr631      Zr  0.06805280  0.04912563  0.54503710     2.83500
Zr632      Zr  0.98631710  0.03762670  0.50173469     2.84090
Zr633      Zr  0.00812727  0.89757507  0.54483091     2.83360
Zr634      Zr  0.08026212  0.97997893  0.50185821     2.84220
O635        O  0.07934390  0.97885917  0.53431911    -1.09010
O636        O  0.99863558  0.96794137  0.49105415    -1.08510
C637        C  0.01323118  0.88476654  0.46758563     1.06150
C638        C  0.18727731  0.09305395  0.52115269     1.08770
C639        C  0.89544582  0.95386544  0.46886450     1.06320
C640        C  0.93619478  0.77944360  0.51964180     1.06680
C641        C  0.09774160  0.97930611  0.57818835     1.06270
C642        C  0.05687071  0.15488842  0.52709383     1.05820
C643        C  0.08566028  0.06986615  0.46857090     1.06240
C644        C  0.12317698  0.90447482  0.52728089     1.05760
H645        H  0.09596469  0.08456355  0.50803568     0.32430
O646        O  0.06818410  0.05035304  0.51251144    -1.30110
H647        H  0.01692866  0.87086309  0.50759726     0.32460
O648        O  0.01034469  0.89843681  0.51232085    -1.31490
C649        C  0.06570416  0.16054819  0.95015147    -0.09600
C650        C  0.02115689  0.10963175  0.95334017     0.06600
C651        C  0.97918009  0.08898510  0.94020455    -0.03370
C652        C  0.98283657  0.11807121  0.92433531    -0.07820
C653        C  0.02742267  0.16823837  0.92099255     0.05710
C654        C  0.06890555  0.19007761  0.93423966    -0.02840
Br655      Br  0.12908238  0.26090365  0.93186082    -0.02540
H656        H  0.09783456  0.17784805  0.96019415     0.09620
H657        H  0.95098506  0.10049147  0.91417761     0.07640
Br658      Br  0.91650088  0.02014524  0.94198850    -0.02960
C659        C  0.88550102  0.18040622  0.87828670    -0.09600
C660        C  0.93668898  0.21766050  0.87175590     0.06600
C661        C  0.94150644  0.25917931  0.85995354    -0.03370
C662        C  0.89600347  0.26182811  0.85489083    -0.07820
C663        C  0.84541756  0.22666080  0.86237390     0.05710
C664        C  0.84068079  0.18536444  0.87431893    -0.02840
Br665      Br  0.77547033  0.13458518  0.88644950    -0.02540
H666        H  0.88026332  0.14762326  0.88704899     0.09620
H667        H  0.90101078  0.29411351  0.84593819     0.07640
Br668      Br  0.00892750  0.31804868  0.85206056    -0.02960
C669        C  0.29444817  0.46957576  0.79310886    -0.09600
C670        C  0.31707230  0.43642840  0.79163585     0.06600
C671        C  0.33702649  0.43087959  0.77439607    -0.03370
C672        C  0.33778985  0.46148880  0.75930582    -0.07820
C673        C  0.31638159  0.49567249  0.76090105     0.05710
C674        C  0.29324306  0.49853642  0.77779331    -0.02840
Br675      Br  0.26116854  0.54242256  0.78086974    -0.02540
H676        H  0.27782734  0.47299786  0.80622865     0.09620
H677        H  0.35404987  0.45772623  0.74614529     0.07640
Br678      Br  0.35903164  0.37880497  0.77028623    -0.02960
C679        C  0.42141953  0.37656701  0.85627892    -0.09600
C680        C  0.41857324  0.39055548  0.83770665     0.06600
C681        C  0.46395718  0.40539798  0.82622258    -0.03370
C682        C  0.50814361  0.40390504  0.83320901    -0.07820
C683        C  0.50756938  0.38250135  0.85079861     0.05710
C684        C  0.46371436  0.37003154  0.86259539    -0.02840
Br685      Br  0.45622839  0.34124615  0.88704953    -0.02540
H686        H  0.38935335  0.36808803  0.86592176     0.09620
H687        H  0.54118993  0.41446960  0.82375630     0.07640
Br688      Br  0.46870459  0.41977541  0.80000110    -0.02960
C689        C  0.20005344  0.25669788  0.84693533    -0.09600
C690        C  0.21906936  0.31071580  0.84249485     0.06600
C691        C  0.18979765  0.33556105  0.84829487    -0.03370
C692        C  0.14170495  0.30598757  0.85768683    -0.07820
C693        C  0.12216860  0.25195754  0.86190520     0.05710
C694        C  0.15193524  0.22724424  0.85668478    -0.02840
Br695      Br  0.12781033  0.15345037  0.86203602    -0.02540
H696        H  0.22239020  0.23733676  0.84266431     0.09620
H697        H  0.12006068  0.32582547  0.86225352     0.07640
Br698      Br  0.21497549  0.41073407  0.84511237    -0.02960
C699        C  0.21679184  0.61256058  0.10263026    -0.09600
C700        C  0.19945890  0.62254018  0.11959678     0.06600
C701        C  0.15656382  0.63270664  0.11997851    -0.03370
C702        C  0.13186228  0.63338905  0.10341625    -0.07820
C703        C  0.14941783  0.62384212  0.08639806     0.05710
C704        C  0.19220058  0.61328978  0.08604144    -0.02840
Br705      Br  0.22031429  0.60260302  0.06321705    -0.02540
H706        H  0.25033493  0.60545278  0.10225757     0.09620
H707        H  0.09857251  0.64087417  0.10381366     0.07640
Br708      Br  0.12960754  0.64435060  0.14279668    -0.02960
C709        C  0.12939598  0.81229919  0.03470937    -0.09600
C710        C  0.07853832  0.80322343  0.02972122     0.06600
C711        C  0.03498423  0.75047784  0.02991657    -0.03370
C712        C  0.04253954  0.70840533  0.03536340    -0.07820
C713        C  0.09310579  0.71704405  0.04045729     0.05710
C714        C  0.13716305  0.76966157  0.03982515    -0.02840
Br715      Br  0.20887326  0.78562878  0.04491120    -0.02540
H716        H  0.16312027  0.85268691  0.03465823     0.09620
H717        H  0.00806222  0.66855000  0.03607578     0.07640
Br718      Br  0.96291055  0.73303091  0.02462357    -0.02960
C719        C  0.88746236  0.18759037  0.00366789    -0.09600
C720        C  0.93191506  0.23921209  0.00546192     0.06600
C721        C  0.97949418  0.24476461  0.01315513    -0.03370
C722        C  0.98115717  0.19955681  0.01919653    -0.07820
C723        C  0.93725870  0.14791833  0.01691739     0.05710
C724        C  0.89004073  0.14216499  0.00893035    -0.02840
Br725      Br  0.82773872  0.07381192  0.00469733    -0.02540
H726        H  0.85055239  0.18240681  0.99789702     0.09620
H727        H  0.01844124  0.20465726  0.02459708     0.07640
Br728      Br  0.04586992  0.31144989  0.01378073    -0.02960
C729        C  0.86192407  0.36113509  0.92867645    -0.09600
C730        C  0.80877090  0.31966153  0.92718478     0.06600
C731        C  0.78697049  0.28073563  0.94139628    -0.03370
C732        C  0.81827261  0.28407733  0.95663124    -0.07820
C733        C  0.87126690  0.32562414  0.95817491     0.05710
C734        C  0.89331920  0.36418341  0.94390205    -0.02840
Br735      Br  0.96673475  0.41990341  0.94380921    -0.02540
H736        H  0.87957018  0.39064516  0.91772598     0.09620
H737        H  0.80060942  0.25470622  0.96762619     0.07640
Br738      Br  0.71385379  0.22385269  0.94164225    -0.02960
C739        C  0.95593445  0.43846293  0.02890342    -0.09600
C740        C  0.97771739  0.42899547  0.01288437     0.06600
C741        C  0.02894692  0.46760153  0.00675902    -0.03370
C742        C  0.05760958  0.51535617  0.01660203    -0.07820
C743        C  0.03600063  0.52480296  0.03264098     0.05710
C744        C  0.98477959  0.48623923  0.03880953    -0.02840
Br745      Br  0.95262856  0.49771248  0.06043623    -0.02540
H746        H  0.91659430  0.40868131  0.03367890     0.09620
H747        H  0.09714234  0.54490476  0.01190086     0.07640
Br748      Br  0.06222420  0.45575536  0.98553407    -0.02960
C749        C  0.12571862  0.77290951  0.17588123    -0.09600
C750        C  0.07388856  0.72807651  0.17659820     0.06600
C751        C  0.06805154  0.67842133  0.18239095    -0.03370
C752        C  0.11273187  0.67498207  0.18770545    -0.07820
C753        C  0.16444244  0.71904849  0.18629090     0.05710
C754        C  0.17081009  0.76855526  0.18037754    -0.02840
Br755      Br  0.23986472  0.83145209  0.17866276    -0.02540
H756        H  0.13129930  0.81141587  0.17161422     0.09620
H757        H  0.10726830  0.63620441  0.19159951     0.07640
Br758      Br  0.00192154  0.61159826  0.18094853    -0.02960
C759        C  0.01669216  0.78778495  0.11484913    -0.09600
C760        C  0.98235465  0.78526532  0.12929452     0.06600
C761        C  0.95037990  0.80938465  0.12615932    -0.03370
C762        C  0.95238409  0.83323840  0.10907657    -0.07820
C763        C  0.98852187  0.83797858  0.09519496     0.05710
C764        C  0.02103738  0.81486206  0.09821849    -0.02840
Br765      Br  0.07081218  0.81693956  0.08003090    -0.02540
H766        H  0.04062021  0.76863351  0.11639232     0.09620
H767        H  0.92719652  0.85080494  0.10698825     0.07640
Br768      Br  0.90730835  0.81803258  0.14470287    -0.02960
C769        C  0.71016055  0.47180304  0.25702668    -0.09600
C770        C  0.67695073  0.49464864  0.25557238     0.06600
C771        C  0.64401320  0.48995292  0.27096334    -0.03370
C772        C  0.64451151  0.46235966  0.28686207    -0.07820
C773        C  0.67862965  0.44082528  0.28828334     0.05710
C774        C  0.71226466  0.44643740  0.27322282    -0.02840
Br775      Br  0.76067295  0.41881075  0.27343860    -0.02540
H776        H  0.73484595  0.47337078  0.24540739     0.09620
H777        H  0.61868019  0.45862183  0.29841182     0.07640
Br778      Br  0.59964401  0.52230379  0.27224962    -0.02960
C779        C  0.53810130  0.51073961  0.20963020    -0.09600
C780        C  0.59037277  0.55350647  0.20697880     0.06600
C781        C  0.59679901  0.60208091  0.19962081    -0.03370
C782        C  0.55215404  0.60550286  0.19423647    -0.07820
C783        C  0.50018643  0.56357937  0.19759332     0.05710
C784        C  0.49348356  0.51627675  0.20600538    -0.02840
Br785      Br  0.42571119  0.45877727  0.21416282    -0.02540
H786        H  0.53152153  0.47310681  0.21524721     0.09620
H787        H  0.55821952  0.64321519  0.18879659     0.07640
Br788      Br  0.66351589  0.66852762  0.19909016    -0.02960
C789        C  0.86197621  0.61694638  0.18671558    -0.09600
C790        C  0.88155101  0.67195697  0.18415256     0.06600
C791        C  0.85230332  0.69536113  0.19122406    -0.03370
C792        C  0.80317650  0.66340451  0.19989344    -0.07820
C793        C  0.78321208  0.60835410  0.20217750     0.05710
C794        C  0.81333229  0.58514519  0.19579767    -0.02840
Br795      Br  0.78892434  0.51017486  0.19862145    -0.02540
H796        H  0.88437569  0.59861834  0.18146640     0.09620
H797        H  0.78094218  0.68178387  0.20526963     0.07640
Br798      Br  0.87942601  0.77107473  0.19082177    -0.02960
C799        C  0.38330373  0.80646868  0.59012324    -0.09600
C800        C  0.34924747  0.82846212  0.58925821     0.06600
C801        C  0.31772045  0.82325789  0.60512755    -0.03370
C802        C  0.31764521  0.79288031  0.62036816    -0.07820
C803        C  0.35169781  0.77098059  0.62097356     0.05710
C804        C  0.38683376  0.78078865  0.60598964    -0.02840
Br805      Br  0.44145991  0.76146193  0.60607743    -0.02540
H806        H  0.40810529  0.80937341  0.57836946     0.09620
H807        H  0.29216889  0.78800357  0.63216959     0.07640
Br808      Br  0.27851214  0.86071930  0.60814976    -0.02960
C809        C  0.20493325  0.84112646  0.54385878    -0.09600
C810        C  0.25727980  0.88313160  0.54070304     0.06600
C811        C  0.26397725  0.93075482  0.53236614    -0.03370
C812        C  0.21950435  0.93436633  0.52689754    -0.07820
C813        C  0.16744111  0.89328143  0.53065115     0.05710
C814        C  0.16040846  0.84637770  0.53953208    -0.02840
Br815      Br  0.09180970  0.78839174  0.54676663    -0.02540
H816        H  0.19835388  0.80422251  0.55015474     0.09620
H817        H  0.22590776  0.97160090  0.52089043     0.07640
Br818      Br  0.33136233  0.99598478  0.53020446    -0.02960
C819        C  0.68006788  0.19929490  0.44460884    -0.09600
C820        C  0.64473443  0.17186486  0.42997012     0.06600
C821        C  0.60849079  0.11663489  0.43179376    -0.03370
C822        C  0.60848450  0.08991600  0.44799384    -0.07820
C823        C  0.64418905  0.11723243  0.46255173     0.05710
C824        C  0.67977251  0.17263746  0.46085811    -0.02840
Br825      Br  0.72676374  0.21431093  0.48061492    -0.02540
H826        H  0.70770472  0.24190019  0.44347600     0.09620
H827        H  0.58124108  0.04722116  0.44906589     0.07640
Br828      Br  0.56111297  0.07486500  0.41211642    -0.02960
C829        C  0.75129033  0.05291831  0.52280433    -0.09600
C830        C  0.73595243  0.04793240  0.50402735     0.06600
C831        C  0.76539613  0.03740748  0.49063828    -0.03370
C832        C  0.80982341  0.03373052  0.49606931    -0.07820
C833        C  0.82510905  0.03841426  0.51481317     0.05710
C834        C  0.79500059  0.04759410  0.52831177    -0.02840
Br835      Br  0.81208858  0.05437117  0.55428361    -0.02540
H836        H  0.72893753  0.06074744  0.53327450     0.09620
H837        H  0.83125697  0.02470372  0.48556906     0.07640
Br838      Br  0.74423364  0.02212233  0.46503684    -0.02960
C839        C  0.52801133  0.01843234  0.52643602    -0.09600
C840        C  0.54406585  0.99171285  0.51392518     0.06600
C841        C  0.51206494  0.93603303  0.51140760    -0.03370
C842        C  0.46415475  0.90792150  0.52128982    -0.07820
C843        C  0.44817320  0.93480176  0.53377967     0.05710
C844        C  0.48057468  0.99028694  0.53646995    -0.02840
Br845      Br  0.46169508  0.02895398  0.55382571    -0.02540
H846        H  0.55266929  0.06124686  0.52847072     0.09620
H847        H  0.43930916  0.86514774  0.51922755     0.07640
Br848      Br  0.53170005  0.89737987  0.49431523    -0.02960
C849        C  0.20835831  0.84092921  0.67426861    -0.09600
C850        C  0.25336889  0.88988137  0.66940229     0.06600
C851        C  0.30445370  0.89478159  0.67031043    -0.03370
C852        C  0.31001264  0.85203791  0.67664837    -0.07820
C853        C  0.26524674  0.80331811  0.68160341     0.05710
C854        C  0.21395190  0.79754435  0.68018739    -0.02840
Br855      Br  0.15097894  0.73185123  0.68671153    -0.02540
H856        H  0.16890423  0.83663998  0.67361870     0.09620
H857        H  0.34944656  0.85612156  0.67696811     0.07640
Br858      Br  0.36761426  0.95738568  0.66168628    -0.02960
C859        C  0.12913751  0.95951382  0.62755623    -0.09600
C860        C  0.18409915  0.97806730  0.62630421     0.06600
C861        C  0.21060969  0.99788424  0.60924061    -0.03370
C862        C  0.18227788  0.99992673  0.59381119    -0.07820
C863        C  0.12732188  0.98132521  0.59504734     0.05710
C864        C  0.10054216  0.96045844  0.61201853    -0.02840
Br865      Br  0.02516365  0.93362249  0.61463184    -0.02540
H866        H  0.10851151  0.94438282  0.64065229     0.09620
H867        H  0.20285087  0.01461721  0.58068203     0.07640
Br868      Br  0.28496912  0.02062971  0.60627128    -0.02960
C869        C  0.45488687  0.41059116  0.70165004    -0.09600
C870        C  0.41173390  0.36612216  0.71004974     0.06600
C871        C  0.36311878  0.36584398  0.71245887    -0.03370
C872        C  0.35858247  0.40990366  0.70679275    -0.07820
C873        C  0.40175665  0.45461760  0.69851422     0.05710
C874        C  0.45007001  0.45447962  0.69576030    -0.02840
Br875      Br  0.50928355  0.51143823  0.68313268    -0.02540
H876        H  0.49209225  0.41070950  0.69936721     0.09620
H877        H  0.32131581  0.40964049  0.70913403     0.07640
Br878      Br  0.30230718  0.30672443  0.72388453    -0.02960
C879        C  0.55137182  0.26913246  0.76865808    -0.09600
C880        C  0.53533915  0.27903316  0.78593133     0.06600
C881        C  0.48981285  0.28486428  0.78688714    -0.03370
C882        C  0.46364272  0.28520550  0.77056359    -0.07820
C883        C  0.48106122  0.27766068  0.75314231     0.05710
C884        C  0.52482805  0.26856840  0.75231260    -0.02840
Br885      Br  0.55119708  0.25723074  0.72920609    -0.02540
H886        H  0.58485792  0.26210786  0.76787311     0.09620
H887        H  0.42866625  0.28986911  0.77150118     0.07640
Br888      Br  0.45900320  0.28654114  0.81028598    -0.02960
C889        C  0.37026884  0.17455058  0.68108326    -0.09600
C890        C  0.36113902  0.17510345  0.70022896     0.06600
C891        C  0.32228107  0.12766397  0.70889118    -0.03370
C892        C  0.29367607  0.08087385  0.69840144    -0.07820
C893        C  0.30272428  0.08034675  0.67924675     0.05710
C894        C  0.34176806  0.12772220  0.67060209    -0.02840
Br895      Br  0.36027570  0.13005973  0.64484319    -0.02540
H896        H  0.40033638  0.21061873  0.67430553     0.09620
H897        H  0.26367232  0.04479072  0.70519041     0.07640
Br898      Br  0.30441159  0.12514701  0.73472610    -0.02960
C899        C  0.69933982  0.03620757  0.36807694    -0.09600
C900        C  0.74878284  0.04552102  0.37499232     0.06600
C901        C  0.79147049  0.09896883  0.37579250    -0.03370
C902        C  0.78305169  0.14117697  0.37064205    -0.07820
C903        C  0.73348424  0.13145920  0.36375485     0.05710
C904        C  0.69168971  0.07802905  0.36218198    -0.02840
Br905      Br  0.62151212  0.05871179  0.35357343    -0.02540
H906        H  0.66557773  0.99590793  0.36759284     0.09620
H907        H  0.81560406  0.18194280  0.37197664     0.07640
Br908      Br  0.86290933  0.11750584  0.38261598    -0.02960
C909        C  0.78110028  0.92600506  0.43651481    -0.09600
C910        C  0.80912010  0.95353109  0.42051760     0.06600
C911        C  0.86527637  0.97956400  0.42039007    -0.03370
C912        C  0.89261604  0.97869630  0.43624365    -0.07820
C913        C  0.86473745  0.95126603  0.45225059     0.05710
C914        C  0.80851164  0.92486312  0.45237805    -0.02840
Br915      Br  0.76785045  0.88976922  0.47419515    -0.02540
H916        H  0.73785867  0.90577782  0.43669273     0.09620
H917        H  0.93588199  0.99911719  0.43603019     0.07640
Br918      Br  0.90618007  0.01463422  0.39862175    -0.02960
C919        C  0.62583769  0.51344673  0.33729797    -0.09600
C920        C  0.59789445  0.48170896  0.35259361     0.06600
C921        C  0.56257536  0.49311173  0.36249780    -0.03370
C922        C  0.55420594  0.53480190  0.35648921    -0.07820
C923        C  0.58125397  0.56555178  0.34081098     0.05710
C924        C  0.61857901  0.55568034  0.33161324    -0.02840
Br925      Br  0.66355464  0.60147480  0.31218991    -0.02540
H926        H  0.65408433  0.50570167  0.32987286     0.09620
H927        H  0.52665709  0.54327628  0.36402812     0.07640
Br928      Br  0.52461020  0.45218237  0.38387975    -0.02960
C929        C  0.51170197  0.65411602  0.26111117    -0.09600
C930        C  0.46271563  0.65317678  0.26231984     0.06600
C931        C  0.44030947  0.65104684  0.27991763    -0.03370
C932        C  0.46722615  0.65063842  0.29600683    -0.07820
C933        C  0.51614341  0.65138243  0.29484860     0.05710
C934        C  0.53852617  0.65336844  0.27722081    -0.02840
Br935      Br  0.60643341  0.65717325  0.27452118    -0.02540
H936        H  0.52902300  0.65528695  0.24761442     0.09620
H937        H  0.44981656  0.64946432  0.30948401     0.07640
Br938      Br  0.37256101  0.64756689  0.28258245    -0.02960
C939        C  0.65235632  0.80979444  0.37656134    -0.09600
C940        C  0.69398245  0.85278651  0.36699870     0.06600
C941        C  0.70264587  0.84667317  0.34808298    -0.03370
C942        C  0.66971271  0.79814025  0.33908304    -0.07820
C943        C  0.62829741  0.75510651  0.34868067     0.05710
C944        C  0.61954454  0.76122879  0.36757094    -0.02840
Br945      Br  0.56200690  0.70542648  0.38145940    -0.02540
H946        H  0.64485957  0.81433559  0.39103344     0.09620
H947        H  0.67728953  0.79347088  0.32463079     0.07640
Br948      Br  0.76072357  0.90194971  0.33421878    -0.02960
C949        C  0.87495994  0.97658313  0.12994350    -0.09600
C950        C  0.83437031  0.98974872  0.12863979     0.06600
C951        C  0.82411972  0.00575025  0.11137312    -0.03370
C952        C  0.85357952  0.00721554  0.09563561    -0.07820
C953        C  0.89356666  0.99316830  0.09689512     0.05710
C954        C  0.90454712  0.97829387  0.11423353    -0.02840
Br955      Br  0.96086590  0.96193450  0.11716365    -0.02540
H956        H  0.88390044  0.96536531  0.14324346     0.09620
H957        H  0.84464369  0.01843529  0.08233179     0.07640
Br958      Br  0.77008510  0.02556603  0.10868393    -0.02960
C959        C  0.61972867  0.80297203  0.17978663    -0.09600
C960        C  0.57565299  0.81087454  0.18179929     0.06600
C961        C  0.58294544  0.86249417  0.17867755    -0.03370
C962        C  0.63333095  0.90497491  0.17403287    -0.07820
C963        C  0.67766687  0.89757849  0.17218277     0.05710
C964        C  0.67054416  0.84584373  0.17517734    -0.02840
Br965      Br  0.72914906  0.83211722  0.17414311    -0.02540
H966        H  0.61474512  0.76351672  0.18200422     0.09620
H967        H  0.63768030  0.94402891  0.17144459     0.07640
Br968      Br  0.52473419  0.87680497  0.17899838    -0.02960
C969        C  0.78091791  0.28137327  0.25280828    -0.09600
C970        C  0.83421855  0.29325478  0.25369650     0.06600
C971        C  0.86072301  0.30694120  0.27099283    -0.03370
C972        C  0.83334455  0.30732981  0.28705133    -0.07820
C973        C  0.77976117  0.29455819  0.28617570     0.05710
C974        C  0.75406700  0.28300662  0.26881046    -0.02840
Br975      Br  0.68467030  0.27497421  0.26593117    -0.02540
H976        H  0.76061313  0.27218266  0.23953674     0.09620
H977        H  0.85393633  0.31758652  0.30027503     0.07640
Br978      Br  0.93369439  0.32386962  0.27354611    -0.02960
C979        C  0.05492517  0.43951210  0.18597699    -0.09600
C980        C  0.08700897  0.47500852  0.20000119     0.06600
C981        C  0.06589107  0.46650353  0.21831278    -0.03370
C982        C  0.01747545  0.42079992  0.22242534    -0.07820
C983        C  0.98591286  0.38429695  0.20860199     0.05710
C984        C  0.00420556  0.39574551  0.18996469    -0.02840
Br985      Br  0.96086500  0.35657047  0.16909754    -0.02540
H986        H  0.06897121  0.44629253  0.17173222     0.09620
H987        H  0.00502581  0.41362049  0.23682609     0.07640
Br988      Br  0.09967340  0.51366249  0.23906287    -0.02960
C989        C  0.82500436  0.09156417  0.20122709    -0.09600
C990        C  0.81605696  0.09033077  0.18201170     0.06600
C991        C  0.82621523  0.13806089  0.17302734    -0.03370
C992        C  0.84557304  0.18562307  0.18318695    -0.07820
C993        C  0.85463734  0.18693684  0.20237069     0.05710
C994        C  0.84424223  0.13923627  0.21141170    -0.02840
Br995      Br  0.85845448  0.13739306  0.23735093    -0.02540
H996        H  0.81784170  0.05540187  0.20829495     0.09620
H997        H  0.85256087  0.22172933  0.17611141     0.07640
Br998      Br  0.81119375  0.14036856  0.14718485    -0.02960
C999        C  0.94906150  0.42304938  0.35051431    -0.09600
C1000       C  0.90348939  0.37202006  0.34968467     0.06600
C1001       C  0.90825867  0.32864448  0.34285038    -0.03370
C1002       C  0.95808083  0.33619391  0.33752346    -0.07820
C1003       C  0.00381079  0.38690176  0.33847397     0.05710
C1004       C  0.99916523  0.43070854  0.34501977    -0.02840
Br1005     Br  0.06017480  0.50099480  0.34723380    -0.02540
H1006       H  0.94564199  0.45686779  0.35542722     0.09620
H1007       H  0.96101444  0.30245184  0.33220383     0.07640
Br1008     Br  0.84725880  0.25923805  0.33890045    -0.02960
C1009       C  0.22435547  0.53377814  0.27891391    -0.09600
C1010       C  0.21326534  0.50766090  0.26167213     0.06600
C1011       C  0.17320827  0.45351847  0.26041358    -0.03370
C1012       C  0.14510326  0.42626559  0.27639299    -0.07820
C1013       C  0.15687507  0.45228647  0.29369197     0.05710
C1014       C  0.19712787  0.50627422  0.29492869    -0.02840
Br1015     Br  0.21689545  0.54345178  0.31826641    -0.02540
H1016       H  0.25450322  0.57561223  0.27993152     0.09620
H1017       H  0.11420530  0.38464915  0.27535627     0.07640
Br1018     Br  0.15434777  0.41614163  0.23707990    -0.02960
C1019       C  0.11466510  0.07049157  0.43610376    -0.09600
C1020       C  0.11167024  0.09924087  0.45142398     0.06600
C1021       C  0.13409448  0.15519336  0.45008350    -0.03370
C1022       C  0.15904381  0.18135582  0.43356330    -0.07820
C1023       C  0.16223726  0.15257037  0.41828242     0.05710
C1024       C  0.13932068  0.09660672  0.41957505    -0.02840
Br1025     Br  0.13848922  0.05392705  0.39888853    -0.02540
H1026       H  0.09706812  0.02738018  0.43692271     0.09620
H1027       H  0.17691615  0.22448180  0.43273715     0.07640
Br1028     Br  0.13495196  0.19796831  0.47076596    -0.02960
C1029       C  0.41544388  0.27751460  0.37375549    -0.09600
C1030       C  0.42003658  0.23523447  0.36597651     0.06600
C1031       C  0.37376389  0.18540336  0.36307185    -0.03370
C1032       C  0.32352880  0.17881015  0.36774679    -0.07820
C1033       C  0.31904897  0.22139818  0.37543747     0.05710
C1034       C  0.36559370  0.27084391  0.37862665    -0.02840
Br1035     Br  0.36328067  0.32948803  0.39054304    -0.02540
H1036       H  0.45102582  0.31559240  0.37646934     0.09620
H1037       H  0.28793854  0.14056521  0.36531707     0.07640
Br1038     Br  0.37760991  0.12619371  0.35242340    -0.02960
C1039       C  0.21182716  0.32562421  0.36252503    -0.09600
C1040       C  0.17771820  0.27039527  0.36498367     0.06600
C1041       C  0.12542358  0.24630632  0.35775970    -0.03370
C1042       C  0.10811082  0.27757558  0.34848535    -0.07820
C1043       C  0.14219289  0.33280096  0.34607596     0.05710
C1044       C  0.19452534  0.35686390  0.35323008    -0.02840
Br1045     Br  0.24293756  0.43257831  0.35171239    -0.02540
H1046       H  0.25188319  0.34475253  0.36818344     0.09620
H1047       H  0.06800642  0.25853350  0.34287135     0.07640
Br1048     Br  0.07695530  0.17059174  0.35920319    -0.02960
C1049       C  0.67243325  0.85355533  0.04279129    -0.09600
C1050       C  0.66874828  0.90015857  0.04517245     0.06600
C1051       C  0.71418974  0.95047409  0.04184578    -0.03370
C1052       C  0.76153934  0.95337062  0.03576403    -0.07820
C1053       C  0.76509414  0.90696808  0.03308713     0.05710
C1054       C  0.72032135  0.85666803  0.03691299    -0.02840
Br1055     Br  0.72247356  0.79147499  0.03382845    -0.02540
H1056       H  0.63778835  0.81464729  0.04529481     0.09620
H1057       H  0.79663965  0.99230441  0.03391683     0.07640
Br1058     Br  0.71514130  0.01665944  0.04669848    -0.02960
C1059       C  0.45337653  0.82068536  0.11508695    -0.09600
C1060       C  0.45180553  0.77223407  0.11925138     0.06600
C1061       C  0.48141942  0.75593649  0.10776464    -0.03370
C1062       C  0.50873709  0.78618504  0.09225984    -0.07820
C1063       C  0.51032652  0.83443933  0.08810841     0.05710
C1064       C  0.48321358  0.85234923  0.10003813    -0.02840
Br1065     Br  0.48920204  0.92167366  0.09782854    -0.02540
H1066       H  0.43300608  0.83524314  0.12402172     0.09620
H1067       H  0.52914741  0.77165341  0.08333133     0.07640
Br1068     Br  0.48851466  0.69375526  0.11190830    -0.02960
C1069       C  0.54182106  0.19390772  0.94084791    -0.09600
C1070       C  0.55778764  0.16890652  0.92747750     0.06600
C1071       C  0.54304927  0.11466052  0.92983940    -0.03370
C1072       C  0.51287944  0.08675081  0.94536344    -0.07820
C1073       C  0.49695815  0.11187068  0.95871020     0.05710
C1074       C  0.51203628  0.16615576  0.95639118    -0.02840
Br1075     Br  0.49638023  0.20569768  0.97448852    -0.02540
H1076       H  0.55317210  0.23569838  0.93931835     0.09620
H1077       H  0.50144390  0.04497744  0.94698466     0.07640
Br1078     Br  0.55988877  0.07553597  0.91193908    -0.02960
C1079       C  0.25037894  0.99427933  0.01440694    -0.09600
C1080       C  0.24632950  0.04082214  0.01548470     0.06600
C1081       C  0.29041539  0.09022369  0.01022526    -0.03370
C1082       C  0.33770839  0.09229433  0.00424091    -0.07820
C1083       C  0.34158963  0.04552814  0.00303198     0.05710
C1084       C  0.29688677  0.99599831  0.00795737    -0.02840
Br1085     Br  0.29462045  0.92859110  0.00453234    -0.02540
H1086       H  0.21607649  0.95575623  0.01771380     0.09620
H1087       H  0.37170860  0.13064968  0.00060397     0.07640
Br1088     Br  0.28859875  0.15597041  0.01149108    -0.02960
C1089       C  0.45462473  0.94326219  0.01354912    -0.09600
C1090       C  0.48487225  0.99927491  0.01258099     0.06600
C1091       C  0.53521668  0.02637517  0.02118978    -0.03370
C1092       C  0.55439266  0.99723212  0.03070715    -0.07820
C1093       C  0.52398148  0.94123756  0.03181950     0.05710
C1094       C  0.47390281  0.91408457  0.02301773    -0.02840
Br1095     Br  0.43166433  0.83740321  0.02280877    -0.02540
H1096       H  0.41618922  0.92217672  0.00669760     0.09620
H1097       H  0.59272775  0.01841189  0.03762189     0.07640
Br1098     Br  0.57789443  0.10304534  0.02116721    -0.02960
C1099       C  0.50385409  0.58281131  0.60192520    -0.09600
C1100       C  0.50675793  0.61466459  0.58674854     0.06600
C1101       C  0.47832323  0.64257748  0.58727301    -0.03370
C1102       C  0.44891045  0.63955936  0.60310800    -0.07820
C1103       C  0.44792012  0.60983413  0.61862378     0.05710
C1104       C  0.47464445  0.58018243  0.61781215    -0.02840
Br1105     Br  0.47382656  0.53693373  0.63807713    -0.02540
H1106       H  0.52464236  0.56014066  0.60141915     0.09620
H1107       H  0.42581772  0.65966839  0.60325167     0.07640
Br1108     Br  0.47641720  0.68308686  0.56645957    -0.02960
C1109       C  0.66377639  0.75379106  0.53857240    -0.09600
C1110       C  0.66183323  0.70521290  0.54290438     0.06600
C1111       C  0.70902595  0.70206663  0.54177389    -0.03370
C1112       C  0.75640615  0.74627676  0.53581162    -0.07820
C1113       C  0.75841672  0.79467626  0.53147655     0.05710
C1114       C  0.71183439  0.79861425  0.53302440    -0.02840
Br1115     Br  0.71194885  0.86371012  0.52720882    -0.02540
H1116       H  0.62782355  0.75674769  0.53944189     0.09620
H1117       H  0.79255434  0.74354276  0.53530493     0.07640
Br1118     Br  0.71242731  0.64014815  0.54974077    -0.02960
C1119       C  0.24860553  0.17267613  0.50344930    -0.09600
C1120       C  0.24158491  0.13717175  0.51784538     0.06600
C1121       C  0.28583381  0.14487307  0.52837157    -0.03370
C1122       C  0.33682319  0.18741764  0.52401901    -0.07820
C1123       C  0.34378850  0.22251816  0.50937315     0.05710
C1124       C  0.29900330  0.21548901  0.49933092    -0.02840
Br1125     Br  0.30402487  0.26471932  0.48050059    -0.02540
H1126       H  0.21444353  0.16742563  0.49551745     0.09620
H1127       H  0.37103452  0.19296594  0.53196298     0.07640
Br1128     Br  0.27827640  0.09752748  0.54828831    -0.02960
C1129       C  0.50382054  0.31495869  0.43182409    -0.09600
C1130       C  0.55306673  0.31657681  0.43236321     0.06600
C1131       C  0.57476310  0.31389996  0.44952384    -0.03370
C1132       C  0.54755908  0.31101873  0.46597413    -0.07820
C1133       C  0.49812042  0.30930503  0.46547142     0.05710
C1134       C  0.47628528  0.31142860  0.44822551    -0.02840
Br1135     Br  0.41024253  0.31173720  0.44627019    -0.02540
H1136       H  0.48662394  0.31612391  0.41858637     0.09620
H1137       H  0.56469820  0.30958879  0.47918408     0.07640
Br1138     Br  0.63993973  0.31154546  0.45102286    -0.02960
C1139       C  0.55850588  0.48909481  0.53473997    -0.09600
C1140       C  0.52573368  0.51231013  0.53500326     0.06600
C1141       C  0.47411173  0.48430013  0.52734366    -0.03370
C1142       C  0.45581769  0.43348481  0.51976171    -0.07820
C1143       C  0.48839720  0.41006169  0.51956370     0.05710
C1144       C  0.54021709  0.43823260  0.52709894    -0.02840
Br1145     Br  0.58644515  0.40809112  0.52802466    -0.02540
H1146       H  0.59798249  0.51015023  0.54085835     0.09620
H1147       H  0.41638669  0.41259777  0.51360082     0.07640
Br1148     Br  0.42808620  0.51468133  0.52612818    -0.02960
C1149       C  0.78678635  0.44207345  0.75093572    -0.09600
C1150       C  0.83684177  0.48836658  0.75226509     0.06600
C1151       C  0.86008017  0.50727913  0.76984011    -0.03370
C1152       C  0.83397585  0.47859470  0.78577838    -0.07820
C1153       C  0.78437735  0.43180113  0.78440820     0.05710
C1154       C  0.76039756  0.41382177  0.76691944    -0.02840
Br1155     Br  0.69268585  0.35014296  0.76422653    -0.02540
H1156       H  0.76867401  0.42754061  0.73744797     0.09620
H1157       H  0.85224869  0.49291399  0.79926615     0.07640
Br1158     Br  0.92632318  0.57288400  0.77279737    -0.02960
C1159       C  0.00394420  0.54466327  0.68994660    -0.09600
C1160       C  0.98995172  0.54065954  0.70886607     0.06600
C1161       C  0.02549497  0.53946476  0.72210421    -0.03370
C1162       C  0.07329847  0.54322784  0.71626261    -0.07820
C1163       C  0.08924584  0.55149605  0.69752375     0.05710
C1164       C  0.05328391  0.55118041  0.68426042    -0.02840
Br1165     Br  0.06796863  0.55887905  0.65827475    -0.02540
H1166       H  0.97684459  0.54407731  0.67945243     0.09620
H1167       H  0.10011120  0.54369731  0.72685831     0.07640
Br1168     Br  0.01681607  0.54013520  0.74858452    -0.02960
C1169       C  0.64702083  0.67496041  0.68590550    -0.09600
C1170       C  0.67970248  0.71453916  0.67298314     0.06600
C1171       C  0.66317800  0.75098783  0.66706265    -0.03370
C1172       C  0.61218014  0.74186088  0.67162086    -0.07820
C1173       C  0.57889611  0.70129781  0.68406132     0.05710
C1174       C  0.59906426  0.67031911  0.69231431    -0.02840
Br1175     Br  0.56546762  0.62188225  0.71272196    -0.02540
H1176       H  0.65822092  0.64681372  0.69118894     0.09620
H1177       H  0.59903019  0.76763053  0.66555158     0.07640
Br1178     Br  0.70914894  0.81744609  0.65461163    -0.02960
C1179       C  0.82951867  0.81884800  0.62239522    -0.09600
C1180       C  0.82041519  0.76639682  0.62388858     0.06600
C1181       C  0.83877717  0.74567051  0.60968220    -0.03370
C1182       C  0.86660099  0.77790797  0.59451245    -0.07820
C1183       C  0.87624969  0.83071541  0.59313159     0.05710
C1184       C  0.85717576  0.85107887  0.60730285    -0.02840
Br1185     Br  0.87076437  0.92364883  0.60786491    -0.02540
H1186       H  0.81657324  0.83558138  0.63341833     0.09620
H1187       H  0.88015794  0.76135444  0.58362154     0.07640
Br1188     Br  0.82499281  0.67318245  0.60987008    -0.02960
C1189       C  0.86664269  0.65643119  0.70776262    -0.09600
C1190       C  0.86375659  0.61062144  0.69968698     0.06600
C1191       C  0.84276627  0.59496106  0.68168473    -0.03370
C1192       C  0.82451175  0.62480253  0.67210983    -0.07820
C1193       C  0.82650355  0.67014334  0.68025740     0.05710
C1194       C  0.84841335  0.68641045  0.69813914    -0.02840
Br1195     Br  0.85596989  0.75005203  0.70963310    -0.02540
H1196       H  0.88311652  0.66882538  0.72157381     0.09620
H1197       H  0.80728760  0.61172839  0.65841930     0.07640
Br1198     Br  0.83507694  0.53129354  0.67008886    -0.02960
C1199       C  0.42224094  0.11579428  0.88424250    -0.09600
C1200       C  0.43113053  0.13270190  0.86566672     0.06600
C1201       C  0.39010983  0.10544799  0.85259852    -0.03370
C1202       C  0.34098730  0.06236863  0.85838405    -0.07820
C1203       C  0.33227394  0.04526145  0.87704120     0.05710
C1204       C  0.37404164  0.07229823  0.88995051    -0.02840
Br1205     Br  0.37070116  0.04930113  0.91516470    -0.02540
H1206       H  0.45403853  0.13532630  0.89434640     0.09620
H1207       H  0.30944317  0.04209946  0.84826502     0.07640
Br1208     Br  0.39852063  0.12663390  0.82701479    -0.02960
C1209       C  0.12957700  0.95913630  0.91923804    -0.09600
C1210       C  0.17683445  0.95677809  0.92084107     0.06600
C1211       C  0.19606782  0.95476413  0.93861762    -0.03370
C1212       C  0.16878007  0.95649491  0.95446518    -0.07820
C1213       C  0.12197911  0.95947831  0.95283142     0.05710
C1214       C  0.10211911  0.96055362  0.93511651    -0.02840
Br1215     Br  0.03794974  0.96432762  0.93212549    -0.02540
H1216       H  0.11422104  0.96011999  0.90561897     0.09620
H1217       H  0.18402491  0.95538569  0.96810053     0.07640
Br1218     Br  0.25801774  0.94741841  0.94195963    -0.02960
C1219       C  0.00812916  0.51845598  0.84115567    -0.09600
C1220       C  0.01118153  0.56741951  0.83676693     0.06600
C1221       C  0.96433431  0.57129061  0.83746578    -0.03370
C1222       C  0.91576241  0.52675428  0.84258385    -0.07820
C1223       C  0.91270423  0.47778827  0.84688626     0.05710
C1224       C  0.95937569  0.47392742  0.84624648    -0.02840
Br1225     Br  0.95871387  0.40975467  0.85332801    -0.02540
H1226       H  0.04392242  0.51511467  0.84087945     0.09620
H1227       H  0.87987750  0.52997281  0.84275138     0.07640
Br1228     Br  0.96380999  0.63535873  0.83047640    -0.02960
C1229       C  0.24290638  0.65323392  0.77895801    -0.09600
C1230       C  0.22274322  0.65527998  0.76151193     0.06600
C1231       C  0.17608457  0.65904696  0.76037226    -0.03370
C1232       C  0.14902744  0.65850769  0.77663403    -0.07820
C1233       C  0.16881203  0.65557925  0.79411613     0.05710
C1234       C  0.21653139  0.65362921  0.79522864    -0.02840
Br1235     Br  0.24625277  0.64975728  0.81857528    -0.02540
H1236       H  0.27914109  0.65096523  0.77992064     0.09620
H1237       H  0.11293805  0.66116603  0.77566791     0.07640
Br1238     Br  0.14941322  0.66695106  0.73695163    -0.02960
C1239       C  0.12164115  0.77894179  0.85041918    -0.09600
C1240       C  0.15458048  0.75617984  0.84830455     0.06600
C1241       C  0.20640533  0.78273066  0.85594879    -0.03370
C1242       C  0.22441162  0.83132751  0.86534088    -0.07820
C1243       C  0.19146707  0.85408226  0.86742319     0.05710
C1244       C  0.13963008  0.82749295  0.85981749    -0.02840
Br1245     Br  0.09287557  0.85706269  0.86089176    -0.02540
H1246       H  0.08201031  0.75930950  0.84439948     0.09620
H1247       H  0.26407278  0.85106584  0.87133436     0.07640
Br1248     Br  0.25316938  0.75321002  0.85493325    -0.02960
C1249       C  0.45293691  0.15692119  0.26713746    -0.09600
C1250       C  0.47937002  0.14213310  0.25385841     0.06600
C1251       C  0.53217164  0.15418013  0.25743976    -0.03370
C1252       C  0.55581138  0.17725312  0.27433833    -0.07820
C1253       C  0.53039494  0.19368483  0.28733089     0.05710
C1254       C  0.47816586  0.18329746  0.28359324    -0.02840
Br1255     Br  0.43747229  0.19980589  0.30088865    -0.02540
H1256       H  0.41196276  0.14712254  0.26486936     0.09620
H1257       H  0.59502509  0.18300253  0.27722043     0.07640
Br1258     Br  0.57652832  0.14515317  0.23944635    -0.02960
C1259       C  0.41528699  0.89934555  0.21782674    -0.09600
C1260       C  0.40554824  0.88346437  0.19909486     0.06600
C1261       C  0.40265695  0.91866461  0.18614996    -0.03370
C1262       C  0.40866873  0.96775547  0.19221966    -0.07820
C1263       C  0.41557249  0.98237735  0.21118402     0.05710
C1264       C  0.41911926  0.94706627  0.22404359    -0.02840
Br1265     Br  0.42249694  0.95595130  0.25062636    -0.02540
H1266       H  0.41668944  0.87273605  0.22814066     0.09620
H1267       H  0.40719298  0.99440373  0.18195667     0.07640
Br1268     Br  0.39111378  0.90295745  0.16005793    -0.02960
C1269       C  0.11530432  0.05950105  0.11330737    -0.09600
C1270       C  0.13567068  0.08635247  0.09648398     0.06600
C1271       C  0.17913818  0.13888510  0.09657651    -0.03370
C1272       C  0.20028867  0.16473868  0.11347443    -0.07820
C1273       C  0.17924706  0.13830942  0.13036857     0.05710
C1274       C  0.13685901  0.08497086  0.13022099    -0.02840
Br1275     Br  0.10579082  0.04600738  0.15270031    -0.02540
H1276       H  0.08190703  0.01897600  0.11327967     0.09620
H1277       H  0.23410103  0.20507643  0.11344429     0.07640
Br1278     Br  0.21278660  0.17517348  0.07398444    -0.02960
C1279       C  0.20687659  0.35079439  0.18466476    -0.09600
C1280       C  0.25820750  0.39569885  0.18350357     0.06600
C1281       C  0.30085937  0.38927223  0.17703814    -0.03370
C1282       C  0.29255221  0.33834868  0.17287158    -0.07820
C1283       C  0.24159780  0.29325426  0.17424625     0.05710
C1284       C  0.19826735  0.29967661  0.17997548    -0.02840
Br1285     Br  0.12721409  0.23991588  0.18189979    -0.02540
H1286       H  0.17354384  0.35555370  0.18911257     0.09620
H1287       H  0.32573280  0.33409099  0.16785821     0.07640
Br1288     Br  0.36939797  0.44922221  0.17105973    -0.02960
C1289       C  0.28483493  0.14297672  0.20276810    -0.09600
C1290       C  0.29416272  0.15411430  0.18373558     0.06600
C1291       C  0.33250914  0.14536921  0.17456448    -0.03370
C1292       C  0.35998884  0.12492577  0.18441445    -0.07820
C1293       C  0.35067273  0.11381518  0.20342514     0.05710
C1294       C  0.31272869  0.12296709  0.21265365    -0.02840
Br1295     Br  0.29603976  0.10690564  0.23850316    -0.02540
H1296       H  0.25522974  0.14923543  0.20990329     0.09620
H1297       H  0.38991074  0.11906365  0.17732166     0.07640
Br1298     Br  0.35175365  0.16401980  0.14898404    -0.02960
C1299       C  0.46180959  0.02854980  0.36370247    -0.09600
C1300       C  0.49387816  0.06214320  0.34928036     0.06600
C1301       C  0.48245706  0.04239280  0.33081420    -0.03370
C1302       C  0.43807503  0.99285029  0.32711141    -0.07820
C1303       C  0.40551829  0.95943944  0.34135415     0.05710
C1304       C  0.41890165  0.97709067  0.35995920    -0.02840
Br1305     Br  0.38310982  0.93194690  0.38085338    -0.02540
H1306       H  0.47070139  0.04195177  0.37799204     0.09620
H1307       H  0.42860782  0.98080212  0.31272177     0.07640
Br1308     Br  0.52342076  0.07958599  0.30930265    -0.02960
C1309       C  0.28314916  0.80143319  0.28156121    -0.09600
C1310       C  0.31815483  0.80775832  0.29615318     0.06600
C1311       C  0.35542960  0.79009909  0.29357979    -0.03370
C1312       C  0.35758622  0.76754407  0.27661086    -0.07820
C1313       C  0.32170905  0.75996343  0.26224812     0.05710
C1314       C  0.28437748  0.77748751  0.26476942    -0.02840
Br1315     Br  0.23659197  0.77298496  0.24542699    -0.02540
H1316       H  0.25502212  0.81579495  0.28315348     0.09620
H1317       H  0.38660115  0.75444433  0.27481406     0.07640
Br1318     Br  0.40148880  0.79162165  0.31305762    -0.02960
C1319       C  0.05285778  0.82362339  0.42801387    -0.09600
C1320       C  0.01106821  0.81082266  0.41540155     0.06600
C1321       C  0.97201048  0.82491500  0.41976085    -0.03370
C1322       C  0.97403019  0.84917531  0.43677533    -0.07820
C1323       C  0.01513749  0.86102750  0.44958634     0.05710
C1324       C  0.05555266  0.84898648  0.44490853    -0.02840
Br1325     Br  0.11394115  0.86357246  0.46114559    -0.02540
H1326       H  0.08322956  0.81308295  0.42482380     0.09620
H1327       H  0.94350503  0.85957143  0.43990276     0.07640
Br1328     Br  0.91689202  0.81517699  0.40266461    -0.02960
C1329       C  0.91390700  0.61058213  0.38250553    -0.09600
C1330       C  0.91714878  0.65415010  0.37283598     0.06600
C1331       C  0.87783645  0.64565016  0.35960351    -0.03370
C1332       C  0.83567434  0.59356236  0.35627166    -0.07820
C1333       C  0.83253511  0.55001502  0.36607064     0.05710
C1334       C  0.87223112  0.55886825  0.37915984    -0.02840
Br1335     Br  0.87263876  0.50134438  0.39227553    -0.02540
H1336       H  0.94440197  0.61682509  0.39254356     0.09620
H1337       H  0.80536487  0.58707800  0.34613288     0.07640
Br1338     Br  0.88022037  0.70404694  0.34607844    -0.02960
C1339       C  0.13582143  0.84336400  0.35465552    -0.09600
C1340       C  0.10694228  0.79074108  0.36137410     0.06600
C1341       C  0.12922857  0.75694231  0.35995761    -0.03370
C1342       C  0.17950740  0.77611840  0.35189590    -0.07820
C1343       C  0.20862056  0.82884932  0.34533363     0.05710
C1344       C  0.18622138  0.86256310  0.34660159    -0.02840
Br1345     Br  0.22132798  0.93406424  0.33684820    -0.02540
H1346       H  0.11902778  0.86962952  0.35570934     0.09620
H1347       H  0.19653144  0.75001091  0.35107020     0.07640
Br1348     Br  0.09498994  0.68573585  0.37000584    -0.02960
C1349       C  0.21094114  0.25189817  0.01685531    -0.09600
C1350       C  0.17123082  0.22425800  0.03036473     0.06600
C1351       C  0.17488155  0.25133694  0.04730632    -0.03370
C1352       C  0.22069343  0.29993517  0.05130756    -0.07820
C1353       C  0.26184896  0.32674587  0.03821300     0.05710
C1354       C  0.25451439  0.30327013  0.02029560    -0.02840
Br1355     Br  0.29874756  0.34007281  0.99927040    -0.02540
H1356       H  0.20789463  0.23377079  0.00337094     0.09620
H1357       H  0.22395987  0.31608871  0.06513055     0.07640
Br1358     Br  0.12025722  0.22613849  0.06622502    -0.02960
C1359       C  0.31943673  0.44824606  0.09771191    -0.09600
C1360       C  0.34959535  0.48073842  0.08279965     0.06600
C1361       C  0.37516366  0.53688530  0.08497163    -0.03370
C1362       C  0.37201202  0.55902882  0.10202358    -0.07820
C1363       C  0.34315030  0.52644280  0.11708081     0.05710
C1364       C  0.31536380  0.47040317  0.11455355    -0.02840
Br1365     Br  0.27171918  0.42155705  0.13352633    -0.02540
H1366       H  0.29922071  0.40505133  0.09633449     0.09620
H1367       H  0.39055963  0.60197647  0.10332395     0.07640
Br1368     Br  0.41129976  0.58516255  0.06482822    -0.02960
C1369       C  0.61637177  0.44504316  0.95236545    -0.09600
C1370       C  0.66202737  0.46978072  0.96366609     0.06600
C1371       C  0.70705089  0.46556145  0.95831413    -0.03370
C1372       C  0.70629097  0.43960833  0.94166147    -0.07820
C1373       C  0.66063731  0.41529170  0.93025171     0.05710
C1374       C  0.61480430  0.41718910  0.93619340    -0.02840
Br1375     Br  0.54841205  0.38400266  0.92311381    -0.02540
H1376       H  0.58131349  0.44772332  0.95601774     0.09620
H1377       H  0.74149869  0.43734586  0.93786787     0.07640
Br1378     Br  0.76922078  0.48999676  0.97367383    -0.02960
C1379       C  0.76341212  0.64455512  0.02343707    -0.09600
C1380       C  0.74540182  0.63418914  0.00491346     0.06600
C1381       C  0.76981599  0.67577569  0.99176761    -0.03370
C1382       C  0.81194800  0.72558788  0.99718053    -0.07820
C1383       C  0.83106796  0.73547122  0.01549705     0.05710
C1384       C  0.80560418  0.69469303  0.02882225    -0.02840
Br1385     Br  0.82752993  0.70469174  0.05434161    -0.02540
H1386       H  0.74473542  0.61328583  0.03377066     0.09620
H1387       H  0.82883251  0.75763936  0.98711612     0.07640
Br1388     Br  0.74506474  0.66882164  0.96661573    -0.02960
C1389       C  0.49438646  0.43674374  0.04013213    -0.09600
C1390       C  0.45990092  0.45500660  0.03422985     0.06600
C1391       C  0.47488966  0.49061147  0.01913343    -0.03370
C1392       C  0.52376000  0.50750106  0.01017213    -0.07820
C1393       C  0.55824114  0.48925483  0.01600730     0.05710
C1394       C  0.54342263  0.45369567  0.03111319    -0.02840
Br1395     Br  0.58944347  0.42826547  0.03992918    -0.02540
H1396       H  0.48318177  0.40941863  0.05175640     0.09620
H1397       H  0.53492364  0.53494031  0.99857559     0.07640
Br1398     Br  0.42955245  0.51692911  0.01027394    -0.02960
C1399       C  0.13911348  0.49569071  0.59430812    -0.09600
C1400       C  0.15721783  0.46651730  0.58380156     0.06600
C1401       C  0.20271175  0.46480572  0.59015535    -0.03370
C1402       C  0.22616927  0.48875301  0.60707085    -0.07820
C1403       C  0.20829157  0.51843743  0.61742915     0.05710
C1404       C  0.16570492  0.52384062  0.61021574    -0.02840
Br1405     Br  0.14308458  0.57148818  0.61989535    -0.02540
H1406       H  0.10434436  0.49784642  0.58999212     0.09620
H1407       H  0.26042707  0.48600944  0.61169004     0.07640
Br1408     Br  0.23938777  0.43626488  0.57594983    -0.02960
C1409       C  0.11694577  0.25301416  0.52984418    -0.09600
C1410       C  0.06536341  0.20868102  0.53060690     0.06600
C1411       C  0.02207824  0.21572276  0.53573640    -0.03370
C1412       C  0.03080057  0.26661776  0.54015017    -0.07820
C1413       C  0.08235622  0.31096381  0.53959468     0.05710
C1414       C  0.12561851  0.30419365  0.53410313    -0.02840
Br1415     Br  0.19648833  0.36369643  0.53133150    -0.02540
H1416       H  0.15033316  0.24782721  0.52581198     0.09620
H1417       H  0.99740537  0.27147155  0.54446220     0.07640
Br1418     Br  0.95089051  0.15672337  0.53830025    -0.02960
C1419       C  0.87811230  0.68033704  0.51892355    -0.09600
C1420       C  0.92809683  0.72584223  0.51598641     0.06600
C1421       C  0.97010166  0.72019855  0.50842378    -0.03370
C1422       C  0.96242790  0.66945168  0.50450311    -0.07820
C1423       C  0.91275338  0.62377814  0.50751097     0.05710
C1424       C  0.87015726  0.62928270  0.51469762    -0.02840
Br1425     Br  0.80127736  0.56846183  0.51943279    -0.02540
H1426       H  0.84540671  0.68454404  0.52447090     0.09620
H1427       H  0.99503251  0.66563165  0.49862420     0.07640
Br1428     Br  0.03741995  0.78066152  0.50174821    -0.02960
C1429       C  0.86877854  0.44753433  0.45223814    -0.09600
C1430       C  0.84368415  0.46514223  0.46501168     0.06600
C1431       C  0.79156265  0.45496286  0.46118622    -0.03370
C1432       C  0.76706833  0.43036969  0.44451068    -0.07820
C1433       C  0.79207224  0.41278776  0.43172372     0.05710
C1434       C  0.84325287  0.42067356  0.43592577    -0.02840
Br1435     Br  0.88204608  0.39850725  0.41982179    -0.02540
H1436       H  0.90894962  0.45523715  0.45483312     0.09620
H1437       H  0.72742543  0.42391841  0.44172069     0.07640
Br1438     Br  0.74963978  0.46946074  0.47858182    -0.02960
C1439       C  0.96773546  0.47974582  0.53419221    -0.09600
C1440       C  0.97239739  0.48999030  0.51507095     0.06600
C1441       C  0.01055620  0.48386934  0.50464127    -0.03370
C1442       C  0.04231441  0.46638422  0.51335606    -0.07820
C1443       C  0.03718733  0.45550800  0.53243306     0.05710
C1444       C  0.99954812  0.46236582  0.54291583    -0.02840
Br1445     Br  0.98732779  0.44523617  0.56888091    -0.02540
H1446       H  0.93835975  0.48412849  0.54227719     0.09620
H1447       H  0.07138394  0.46155303  0.50525136     0.07640
Br1448     Br  0.02272928  0.50115868  0.47869537    -0.02960
C1449       C  0.77279179  0.63775511  0.85547950    -0.09600
C1450       C  0.76379016  0.64779470  0.87394949     0.06600
C1451       C  0.74704347  0.60633840  0.88712454    -0.03370
C1452       C  0.74018831  0.55667867  0.88182486    -0.07820
C1453       C  0.74854608  0.54621400  0.86340663     0.05710
C1454       C  0.76532505  0.58737487  0.85014129    -0.02840
Br1455     Br  0.78051124  0.57734653  0.82495615    -0.02540
H1456       H  0.78526325  0.66907594  0.84517028     0.09620
H1457       H  0.72626436  0.52515866  0.89213694     0.07640
Br1458     Br  0.72762293  0.61287531  0.91218954    -0.02960
C1459       C  0.83914337  0.77658667  0.93155996    -0.09600
C1460       C  0.81862814  0.80057319  0.91953504     0.06600
C1461       C  0.82703420  0.85207120  0.92478386    -0.03370
C1462       C  0.85017890  0.87448465  0.94195191    -0.07820
C1463       C  0.87346467  0.85209739  0.95316218     0.05710
C1464       C  0.86906190  0.80285584  0.94732455    -0.02840
Br1465     Br  0.90351606  0.76820495  0.95925491    -0.01400
H1466       H  0.83310203  0.73708580  0.92876536     0.09620
H1467       H  0.85284739  0.91179435  0.94601408     0.07640
Br1468     Br  0.81707778  0.90011715  0.90896526    -0.02960
C1469       C  0.47837298  0.79792590  0.79001061    -0.09600
C1470       C  0.53092272  0.80833108  0.79200164     0.06600
C1471       C  0.55310112  0.79038243  0.77808827    -0.03370
C1472       C  0.52181026  0.76079235  0.76296572    -0.07820
C1473       C  0.46895936  0.75003050  0.76107341     0.05710
C1474       C  0.44758711  0.76964711  0.77473453    -0.02840
Br1475     Br  0.37606469  0.75791197  0.77405411    -0.02540
H1476       H  0.46070812  0.81112962  0.80062510     0.09620
H1477       H  0.53941780  0.74757597  0.75233914     0.07640
Br1478     Br  0.62674992  0.80836522  0.77821085    -0.02960
C1479       C  0.55599866  0.01526537  0.84782244    -0.09600
C1480       C  0.60767384  0.05974137  0.84897876     0.06600
C1481       C  0.65173066  0.05337426  0.84429546    -0.03370
C1482       C  0.64401957  0.00310123  0.83935448    -0.07820
C1483       C  0.59259965  0.95866421  0.83816837     0.05710
C1484       C  0.54819133  0.96492827  0.84238913    -0.02840
Br1485     Br  0.47651225  0.90593604  0.84121304    -0.02540
H1486       H  0.52170738  0.01987261  0.85090846     0.09620
H1487       H  0.67828903  0.99913315  0.83555211     0.07640
Br1488     Br  0.72208803  0.11318818  0.84103816    -0.02960
C1489       C  0.69332995  0.84687122  0.84939463    -0.09600
C1490       C  0.63808818  0.81448618  0.84705190     0.06600
C1491       C  0.61206955  0.76191208  0.85418790    -0.03370
C1492       C  0.64147595  0.74307719  0.86383661    -0.07820
C1493       C  0.69661769  0.77593005  0.86636443     0.05710
C1494       C  0.72272550  0.82782552  0.85874832    -0.02840
Br1495     Br  0.79890360  0.87288080  0.85955275    -0.02540
H1496       H  0.71387413  0.88680104  0.84353474     0.09620
H1497       H  0.62126173  0.70297901  0.86954765     0.07640
Br1498     Br  0.53646329  0.71520299  0.85181246    -0.02960
C1499       C  0.12801101  0.38911295  0.66764238    -0.09600
C1500       C  0.15968275  0.39188813  0.68279141     0.06600
C1501       C  0.14704672  0.34512383  0.69277479    -0.03370
C1502       C  0.10288578  0.29617377  0.68740816    -0.07820
C1503       C  0.07143303  0.29358649  0.67213147     0.05710
C1504       C  0.08400978  0.34064234  0.66235394    -0.02840
Br1505     Br  0.04112825  0.34102204  0.64207865    -0.02540
H1506       H  0.13741033  0.42507948  0.65994547     0.09620
H1507       H  0.09328893  0.26010435  0.69504142     0.07640
Br1508     Br  0.19014232  0.34632548  0.71317767    -0.02960
C1509       C  0.02008128  0.12836226  0.62486728    -0.09600
C1510       C  0.98042580  0.14264782  0.62673903     0.06600
C1511       C  0.94207307  0.12855482  0.61249095    -0.03370
C1512       C  0.94331472  0.09951730  0.59703546    -0.07820
C1513       C  0.98316201  0.08537954  0.59516532     0.05710
C1514       C  0.02203551  0.10036914  0.60929426    -0.02840
Br1515     Br  0.07786711  0.08235151  0.60878256    -0.02540
H1516       H  0.04944963  0.13846718  0.63574885     0.09620
H1517       H  0.91407562  0.08954259  0.58611799     0.07640
Br1518     Br  0.88972641  0.15131329  0.61254402    -0.02960
C1519       C  0.59646850  0.94476973  0.69633374    -0.09600
C1520       C  0.58428479  0.98382212  0.70260484     0.06600
C1521       C  0.52980632  0.96962024  0.70391334    -0.03370
C1522       C  0.48967363  0.91693461  0.69987454    -0.07820
C1523       C  0.50246712  0.87805862  0.69385074     0.05710
C1524       C  0.55672925  0.89312163  0.69172796    -0.02840
Br1525     Br  0.58047085  0.84447639  0.68419566    -0.02540
H1526       H  0.63756365  0.95375813  0.69551023     0.09620
H1527       H  0.44817206  0.90632716  0.70136410     0.07640
Br1528     Br  0.50714749  0.02028724  0.71003611    -0.02960
C1529       C  0.65309695  0.10447853  0.76463653    -0.09600
C1530       C  0.67627572  0.13595194  0.74883036     0.06600
C1531       C  0.70209511  0.19240925  0.75057735    -0.03370
C1532       C  0.70650870  0.21588366  0.76803135    -0.07820
C1533       C  0.68310568  0.18420616  0.78377814     0.05710
C1534       C  0.65515602  0.12796841  0.78183168    -0.02840
Br1535     Br  0.61881904  0.08059316  0.80199203    -0.02540
H1536       H  0.63338222  0.06123217  0.76367262     0.09620
H1537       H  0.72599208  0.25910136  0.76914512     0.07640
Br1538     Br  0.72765474  0.23957633  0.72952951    -0.02960
C1539       C  0.80669609  0.17432302  0.69001947    -0.09600
C1540       C  0.77642946  0.12054976  0.69538482     0.06600
C1541       C  0.79767313  0.08612875  0.69294210    -0.03370
C1542       C  0.84828168  0.10580269  0.68506748    -0.07820
C1543       C  0.87854510  0.15957468  0.67965146     0.05710
C1544       C  0.85723359  0.19397562  0.68208906    -0.02840
Br1545     Br  0.89352215  0.26705916  0.67382669    -0.02540
H1546       H  0.79065539  0.20103476  0.69188623     0.09620
H1547       H  0.86431499  0.07907099  0.68325689     0.07640
Br1548     Br  0.76099232  0.01294464  0.70106394    -0.02960
loop_ 
_geom_bond_atom_site_label_1 
_geom_bond_atom_site_label_2 
_geom_bond_distance 
_geom_bond_site_symmetry_2 
_ccdc_geom_bond_type 
C1            C2   1.398       .  A
C1            C6   1.412       .  A
C1         C1530   1.486       .  S
C2            C3   1.394       .  A
C2            H7   1.084       .  S
C3            C4   1.399       .  A
C3         C1540   1.474       .  S
C4            C5   1.409       .  A
C4            H8   1.084       .  S
C5            C6   1.412       .  A
C5         C1520   1.498   1_545  S
C6            H9   1.081       .  S
C10          C11   1.400       .  A
C10          C15   1.406   1_655  A
C10        C1510   1.482       .  S
C11          C12   1.400       .  A
C11          H16   1.084       .  S
C12          C13   1.403       .  A
C12        C1543   1.475       .  S
C13          C14   1.400   1_655  A
C13          H17   1.084       .  S
C14          C15   1.404       .  A
C14        C1503   1.475       .  S
C15          H18   1.084       .  S
C19          C20   1.401       .  A
C19          C24   1.408       .  A
C19        C1470   1.481       .  S
C20          C21   1.399       .  A
C20          H25   1.084       .  S
C21          C22   1.402       .  A
C21        C1490   1.474       .  S
C22          C23   1.402       .  A
C22          H26   1.084       .  S
C23          C24   1.404       .  A
C23        C1483   1.480       .  S
C24          H27   1.084       .  S
C28          C29   1.407       .  A
C28          C33   1.421       .  A
C28        C1460   1.516       .  S
C29          C30   1.400       .  A
C29          H34   1.076       .  S
C30          C31   1.396       .  A
C30        C1493   1.472       .  S
C31          C32   1.398       .  A
C31          H35   1.084       .  S
C32          C33   1.410       .  A
C32        C1450   1.486       .  S
C33          H36   1.080       .  S
C37          C38   1.401       .  A
C37          C42   1.402       .  A
C37        C1423   1.473       .  S
C38          C39   1.399       .  A
C38          H43   1.084       .  S
C39          C40   1.399       .  A
C39        C1440   1.473       .  S
C40          C41   1.403       .  A
C40          H44   1.084       .  S
C41          C42   1.406       .  A
C41        C1430   1.484       .  S
C42          H45   1.083       .  S
C46          C47   1.409       .  A
C46          C51   1.406       .  A
C46        C1400   1.493       .  S
C47          C48   1.398       .  A
C47          H52   1.083       .  S
C48          C49   1.397       .  A
C48        C1443   1.473       .  S
C49          C50   1.399       .  A
C49          H53   1.084       .  S
C50          C51   1.402       .  A
C50        C1413   1.471       .  S
C51          H54   1.081       .  S
C55          C56   1.411       .  A
C55          C60   1.411       .  A
C55        C1370   1.499       .  S
C56          C57   1.402   1_556  A
C56          H61   1.084       .  S
C57          C58   1.399       .  A
C57        C1393   1.477       .  S
C58          C59   1.403   1_554  A
C58          H62   1.084       .  S
C59          C60   1.409       .  A
C59        C1380   1.488   1_556  S
C60          H63   1.081       .  S
C64          C65   1.403       .  A
C64          C69   1.407       .  A
C64        C1360   1.492       .  S
C65          C66   1.401       .  A
C65          H70   1.083       .  S
C66          C67   1.403       .  A
C66        C1390   1.477       .  S
C67          C68   1.410       .  A
C67          H71   1.080       .  S
C68          C69   1.415       .  A
C68        C1353   1.509       .  S
C69          H72   1.082       .  S
C73          C74   1.401       .  A
C73          C78   1.405   1_455  A
C73        C1320   1.479       .  S
C74          C75   1.400       .  A
C74          H79   1.084       .  S
C75          C76   1.403       .  A
C75        C1340   1.475       .  S
C76          C77   1.401   1_455  A
C76          H80   1.084       .  S
C77          C78   1.401       .  A
C77        C1330   1.472       .  S
C78          H81   1.084       .  S
C82          C83   1.399       .  A
C82          C87   1.402       .  A
C82        C1310   1.483       .  S
C83          C84   1.400       .  A
C83          H88   1.084       .  S
C84          C85   1.404       .  A
C84        C1343   1.476       .  S
C85          C86   1.405       .  A
C85          H89   1.082       .  S
C86          C87   1.410       .  A
C86        C1303   1.492       .  S
C87          H90   1.083       .  S
C91          C92   1.405       .  A
C91          C96   1.398       .  A
C91        C1273   1.473       .  S
C92          C93   1.405       .  A
C92          H97   1.084       .  S
C93          C94   1.404       .  A
C93        C1283   1.478       .  S
C94          C95   1.402       .  A
C94          H98   1.084       .  S
C95          C96   1.398       .  A
C95        C1290   1.475       .  S
C96          H99   1.084       .  S
C100        C101   1.399       .  A
C100        C105   1.407       .  A
C100       C1250   1.486       .  S
C101        C102   1.397       .  A
C101        H106   1.084       .  S
C102        C103   1.402       .  A
C102       C1293   1.473       .  S
C103        C104   1.409       .  A
C103        H107   1.083       .  S
C104        C105   1.407       .  A
C104       C1263   1.499   1_545  S
C105        H108   1.076       .  S
C109        C110   1.401       .  A
C109        C114   1.404       .  A
C109       C1233   1.474       .  S
C110        C111   1.402       .  A
C110        H115   1.084       .  S
C111        C112   1.404       .  A
C111       C1240   1.480       .  S
C112        C113   1.404       .  A
C112        H116   1.084       .  S
C113        C114   1.405       .  A
C113       C1220   1.481       .  S
C114        H117   1.084       .  S
C118        C119   1.399       .  A
C118        C123   1.403   1_565  A
C118       C1210   1.475       .  S
C119        C120   1.402       .  A
C119        H124   1.084       .  S
C120        C121   1.405       .  A
C120       C1243   1.479       .  S
C121        C122   1.405       .  A
C121        H125   1.084       .  S
C122        C123   1.407   1_565  A
C122       C1203   1.487   1_565  S
C123        H126   1.084       .  S
C127        C128   1.398       .  A
C127        C132   1.403       .  A
C127       C1180   1.478       .  S
C128        C129   1.397       .  A
C128        H133   1.084       .  S
C129        C130   1.403       .  A
C129       C1193   1.474       .  S
C130        C131   1.411       .  A
C130        H134   1.081       .  S
C131        C132   1.409       .  A
C131       C1170   1.502       .  S
C132        H135   1.080       .  S
C136        C137   1.397       .  A
C136        C141   1.399       .  A
C136       C1150   1.467       .  S
C137        C138   1.398       .  A
C137        H142   1.084       .  S
C138        C139   1.402       .  A
C138       C1190   1.471       .  S
C139        C140   1.409       .  A
C139        H143   1.083       .  S
C140        C141   1.404       .  A
C140       C1160   1.491       .  S
C141        H144   1.082       .  S
C145        C146   1.397       .  A
C145        C150   1.403       .  A
C145       C1133   1.472       .  S
C146        C147   1.399       .  A
C146        H151   1.085       .  S
C147        C148   1.403       .  A
C147       C1143   1.472       .  S
C148        C149   1.401       .  A
C148        H152   1.084       .  S
C149        C150   1.405       .  A
C149       C1123   1.474       .  S
C150        H153   1.084       .  S
C154        C155   1.396       .  A
C154        C159   1.405       .  A
C154       C1100   1.470       .  S
C155        C156   1.396       .  A
C155        H160   1.085       .  S
C156        C157   1.400       .  A
C156       C1140   1.470       .  S
C157        C158   1.405       .  A
C157        H161   1.084       .  S
C158        C159   1.406       .  A
C158       C1110   1.480       .  S
C159        H162   1.084       .  S
C163        C164   1.400       .  A
C163        C168   1.407       .  A
C163       C1073   1.479       .  S
C164        C165   1.396   1_556  A
C164        H169   1.084       .  S
C165        C166   1.398       .  A
C165       C1090   1.470   1_545  S
C166        C167   1.403   1_554  A
C166        H170   1.084       .  S
C167        C168   1.407       .  A
C167       C1083   1.484   1_556  S
C168        H171   1.084       .  S
C172        C173   1.405       .  A
C172        C177   1.400       .  A
C172       C1050   1.481       .  S
C173        C174   1.412       .  A
C173        H178   1.083       .  S
C174        C175   1.402       .  A
C174       C1063   1.490       .  S
C175        C176   1.399       .  A
C175        H179   1.083       .  S
C176        C177   1.398       .  A
C176       C1093   1.471       .  S
C177        H180   1.084       .  S
C181        C182   1.403       .  A
C181        C186   1.405       .  A
C181       C1023   1.478       .  S
C182        C183   1.404       .  A
C182        H187   1.084       .  S
C183        C184   1.404       .  A
C183       C1040   1.482       .  S
C184        C185   1.403       .  A
C184        H188   1.084       .  S
C185        C186   1.402       .  A
C185       C1033   1.478       .  S
C186        H189   1.084       .  S
C190        C191   1.404       .  A
C190        C195   1.401       .  A
C190       C1013   1.474       .  S
C191        C192   1.405       .  A
C191        H196   1.084       .  S
C192        C193   1.404       .  A
C192       C1003   1.480       .  S
C193        C194   1.403       .  A
C193        H197   1.084       .  S
C194        C195   1.403       .  A
C194       C1043   1.481       .  S
C195        H198   1.084       .  S
C199        C200   1.400       .  A
C199        C204   1.402       .  A
C199        C970   1.480       .  S
C200        C201   1.403       .  A
C200        H205   1.084       .  S
C201        C202   1.407       .  A
C201        C993   1.485       .  S
C202        C203   1.409       .  A
C202        H206   1.082       .  S
C203        C204   1.412       .  A
C203        C983   1.501       .  S
C204        H207   1.083       .  S
C208        C209   1.400   1_565  A
C208        C213   1.406       .  A
C208        C950   1.477       .  S
C209        C210   1.403       .  A
C209        H214   1.084       .  S
C210        C211   1.406   1_545  A
C210        C990   1.487       .  S
C211        C212   1.410       .  A
C211        H215   1.084       .  S
C212        C213   1.409       .  A
C212        C963   1.492       .  S
C213        H216   1.083       .  S
C217        C218   1.402       .  A
C217        C222   1.407       .  A
C217        C933   1.480       .  S
C218        C219   1.403       .  A
C218        H223   1.084       .  S
C219        C220   1.401       .  A
C219        C943   1.475       .  S
C220        C221   1.398       .  A
C220        H224   1.084       .  S
C221        C222   1.408       .  A
C221        C923   1.477       .  S
C222        H225   1.084       .  S
C226        C227   1.399       .  A
C226        C231   1.406       .  A
C226        C910   1.475       .  S
C227        C228   1.399       .  A
C227        H232   1.084       .  S
C228        C229   1.400       .  A
C228        C940   1.477       .  S
C229        C230   1.407       .  A
C229        H233   1.083       .  S
C230        C231   1.409       .  A
C230        C900   1.494   1_565  S
C231        H234   1.082   1_565  S
C235        C236   1.408       .  A
C235        C240   1.404       .  A
C235        C883   1.484       .  S
C236        C237   1.406       .  A
C236        H241   1.084       .  S
C237        C238   1.402       .  A
C237        C870   1.482       .  S
C238        C239   1.403       .  A
C238        H242   1.084       .  S
C239        C240   1.404       .  A
C239        C890   1.481       .  S
C240        H243   1.084       .  S
C244        C245   1.402   1_565  A
C244        C249   1.405       .  A
C244        C860   1.476       .  S
C245        C246   1.403       .  A
C245        H250   1.084       .  S
C246        C247   1.401   1_545  A
C246        C893   1.481       .  S
C247        C248   1.404       .  A
C247        H251   1.084       .  S
C248        C249   1.406       .  A
C248        C850   1.481       .  S
C249        H252   1.084       .  S
C253        C254   1.408       .  A
C253        C258   1.403       .  A
C253        C830   1.485       .  S
C254        C255   1.406       .  A
C254        H259   1.083       .  S
C255        C256   1.401       .  A
C255        C823   1.481       .  S
C256        C257   1.399       .  A
C256        H260   1.084       .  S
C257        C258   1.400       .  A
C257        C840   1.469   1_545  S
C258        H261   1.084   1_545  S
C262        C263   1.408       .  A
C262        C267   1.414       .  A
C262        C800   1.501       .  S
C263        C264   1.394       .  A
C263        H268   1.083       .  S
C264        C265   1.394       .  A
C264        C843   1.468       .  S
C265        C266   1.402       .  A
C265        H269   1.083       .  S
C266        C267   1.415       .  A
C266        C810   1.497       .  S
C267        H270   1.078       .  S
C271        C272   1.408       .  A
C271        C276   1.406       .  A
C271        C770   1.496       .  S
C272        C273   1.411       .  A
C272        H277   1.077       .  S
C273        C274   1.402       .  A
C273        C780   1.496       .  S
C274        C275   1.397       .  A
C274        H278   1.083       .  S
C275        C276   1.397       .  A
C275        C793   1.473       .  S
C276        H279   1.083       .  S
C280        C281   1.407       .  A
C280        C285   1.417   1_655  A
C280        C760   1.504       .  S
C281        C282   1.401       .  A
C281        H286   1.081       .  S
C282        C283   1.397       .  A
C282        C790   1.476       .  S
C283        C284   1.402   1_655  A
C283        H287   1.084       .  S
C284        C285   1.411       .  A
C284        C750   1.495       .  S
C285        H288   1.082       .  S
C289        C290   1.400       .  A
C289        C294   1.407       .  A
C289        C733   1.480       .  S
C290        C291   1.396   1_556  A
C290        H295   1.084       .  S
C291        C292   1.396       .  A
C291        C740   1.465       .  S
C292        C293   1.402   1_554  A
C292        H296   1.083       .  S
C293        C294   1.409       .  A
C293        C720   1.487   1_556  S
C294        H297   1.084       .  S
C298        C299   1.399       .  A
C298        C303   1.404       .  A
C298        C703   1.471       .  S
C299        C300   1.395       .  A
C299        H304   1.084       .  S
C300        C301   1.396       .  A
C300        C743   1.464       .  S
C301        C302   1.405       .  A
C301        H305   1.084       .  S
C302        C303   1.406       .  A
C302        C713   1.483       .  S
C303        H306   1.083       .  S
C307        C308   1.417       .  A
C307        C312   1.408       .  A
C307        C680   1.505       .  S
C308        C309   1.403       .  A
C308        H313   1.081       .  S
C309        C310   1.395       .  A
C309        C690   1.476       .  S
C310        C311   1.392       .  A
C310        H314   1.085       .  S
C311        C312   1.400       .  A
C311        C670   1.469       .  S
C312        H315   1.078       .  S
C316        C317   1.400       .  A
C316        C321   1.408   1_455  A
C316        C653   1.481       .  S
C317        C318   1.398       .  A
C317        H322   1.083       .  S
C318        C319   1.403       .  A
C318        C693   1.473       .  S
C319        C320   1.404   1_455  A
C319        H323   1.081       .  S
C320        C321   1.410       .  A
C320        C660   1.500       .  S
C321        H324   1.083       .  S
O325       Zr361   2.466       .  S
O325        C336   1.298       .  A
O326       Zr360   2.423       .  S
O326        C337   1.290       .  A
O327       Zr333   2.441       .  S
O327        C338   1.292       .  A
O328       Zr333   2.440       .  S
O328        C339   1.291       .  A
O329       Zr363   2.460       .  S
O329        C339   1.296       .  A
O330       Zr362   2.444       .  S
O330        C338   1.293       .  A
O331       Zr333   2.456       .  S
O331        C337   1.295       .  A
O332       Zr333   2.419       .  S
O332        C336   1.288       .  A
Zr333       O334   2.342       .  S
Zr333       O335   2.348       .  S
Zr333       O343   2.347       .  S
Zr333       O341   2.333       .  S
O334       Zr360   2.339       .  S
O334       Zr363   2.345       .  S
O335       Zr361   2.340       .  S
O335       Zr362   2.336       .  S
C336       C1533   1.476       .  S
C337       C1200   1.476       .  S
C338       C1480   1.477       .  S
C339        C880   1.476       .  S
H340        O341   0.965       .  S
O341       Zr360   2.354       .  S
O341       Zr362   2.334       .  S
H342        O343   0.966       .  S
O343       Zr361   2.348       .  S
O343       Zr363   2.343       .  S
O344       Zr360   2.456       .  S
O344        C367   1.295       .  A
O345       Zr361   2.449       .  S
O345        C368   1.294       .  A
O346       Zr362   2.453       .  S
O346        C369   1.295       .  A
O347       Zr363   2.411       .  S
O347        C370   1.289       .  A
O348       Zr363   2.433       .  S
O348        C371   1.291       .  A
O349       Zr362   2.431       .  S
O349        C372   1.289       .  A
O350       Zr364   2.450       .  S
O350        C373   1.295       .  A
O351       Zr364   2.419       .  S
O351        C374   1.289       .  A
O352       Zr362   2.417       .  S
O352        C373   1.288       .  A
O353       Zr363   2.472       .  S
O353        C374   1.298       .  A
O354       Zr360   2.415       .  S
O354        C369   1.289       .  A
O355       Zr361   2.468       .  S
O355        C372   1.299       .  A
O356       Zr361   2.434       .  S
O356        C371   1.291       .  A
O357       Zr360   2.458       .  S
O357        C370   1.294       .  A
O358       Zr364   2.440       .  S
O358        C367   1.293       .  A
O359       Zr364   2.440       .  S
O359        C368   1.292       .  A
Zr360       O366   2.339       .  S
Zr360       O378   2.326       .  S
Zr361       O365   2.345       .  S
Zr361       O376   2.345       .  S
Zr362       O366   2.340       .  S
Zr362       O376   2.348       .  S
Zr363       O365   2.333       .  S
Zr363       O378   2.343       .  S
Zr364       O365   2.339       .  S
Zr364       O366   2.332       .  S
Zr364       O378   2.345       .  S
Zr364       O376   2.334       .  S
C367       C1373   1.498       .  S
C368       C1223   1.475       .  S
C369       C1070   1.475       .  S
C370        C683   1.495       .  S
C371       C1153   1.460       .  S
C372        C663   1.496       .  S
C373        C730   1.477       .  S
C374       C1453   1.481       .  S
H375        O376   0.965       .  S
H377        O378   0.965       .  S
O379       Zr415   2.401   1_556  S
O379        C390   1.283       .  A
O380       Zr414   2.447   1_655  S
O380        C391   1.295       .  A
O381       Zr387   2.452       .  S
O381        C392   1.296       .  A
O382       Zr387   2.428   1_546  S
O382        C393   1.290   1_655  A
O383       Zr417   2.453   1_556  S
O383        C393   1.295       .  A
O384       Zr416   2.432       .  S
O384        C392   1.290       .  A
O385       Zr387   2.427   1_545  S
O385        C391   1.290       .  A
O386       Zr387   2.485   1_556  S
O386        C390   1.302       .  A
Zr387       O388   2.348   1_665  S
Zr387       O389   2.324       .  S
Zr387       O397   2.339   1_654  S
Zr387       O395   2.350       .  S
O388       Zr414   2.333       .  S
O388       Zr417   2.329       .  S
O389       Zr415   2.337       .  S
O389       Zr416   2.340       .  S
C390       C1463   1.497       .  S
C391        C723   1.479       .  S
C392       C1053   1.472       .  S
C393        C650   1.486       .  S
H394        O395   0.965       .  S
O395       Zr414   2.331   1_665  S
O395       Zr416   2.346       .  S
H396        O397   0.966       .  S
O397       Zr415   2.341   1_456  S
O397       Zr417   2.352   1_566  S
O398       Zr414   2.430       .  S
O398        C421   1.290       .  A
O399       Zr415   2.434   1_455  S
O399        C422   1.291       .  A
O400       Zr416   2.436       .  S
O400        C423   1.291       .  A
O401       Zr417   2.468       .  S
O401        C424   1.298       .  A
O402       Zr417   2.433   1_556  S
O402        C425   1.290   1_545  A
O403       Zr416   2.444       .  S
O403        C426   1.293       .  A
O404       Zr418   2.438       .  S
O404        C427   1.292   1_455  A
O405       Zr418   2.444   1_545  S
O405        C428   1.294       .  A
O406       Zr416   2.450       .  S
O406        C427   1.295       .  A
O407       Zr417   2.432       .  S
O407        C428   1.291       .  A
O408       Zr414   2.453   1_655  S
O408        C423   1.294   1_545  A
O409       Zr415   2.439       .  S
O409        C426   1.293       .  A
O410       Zr415   2.444   1_456  S
O410        C425   1.292       .  A
O411       Zr414   2.428       .  S
O411        C424   1.287       .  A
O412       Zr418   2.443   1_545  S
O412        C421   1.292       .  A
O413       Zr418   2.437       .  S
O413        C422   1.291       .  A
Zr414       O420   2.339   1_545  S
Zr414       O432   2.348       .  S
Zr415       O419   2.329   1_655  S
Zr415       O430   2.337       .  S
Zr416       O420   2.338   1_655  S
Zr416       O430   2.338       .  S
Zr417       O419   2.349   1_545  S
Zr417       O432   2.346       .  S
Zr418       O419   2.335       .  S
Zr418       O420   2.341       .  S
Zr418       O432   2.348   1_565  S
Zr418       O430   2.346   1_455  S
C421       C1270   1.464       .  S
C422        C710   1.472       .  S
C423        C953   1.472       .  S
C424       C1350   1.501       .  S
C425       C1213   1.465       .  S
C426       C1383   1.481       .  S
C427        C763   1.483       .  S
C428       C1080   1.475       .  S
H429        O430   0.965       .  S
H431        O432   0.966       .  S
O433       Zr469   2.423       .  S
O433        C444   1.290       .  A
O434       Zr468   2.455       .  S
O434        C445   1.295       .  A
O435       Zr441   2.431       .  S
O435        C446   1.291       .  A
O436       Zr441   2.453       .  S
O436        C447   1.295       .  A
O437       Zr471   2.432       .  S
O437        C447   1.290       .  A
O438       Zr470   2.448       .  S
O438        C446   1.294       .  A
O439       Zr441   2.434       .  S
O439        C445   1.291       .  A
O440       Zr441   2.443       .  S
O440        C444   1.292       .  A
Zr441       O442   2.336       .  S
Zr441       O443   2.336       .  S
Zr441       O451   2.339       .  S
Zr441       O449   2.347       .  S
O442       Zr468   2.328       .  S
O442       Zr471   2.345       .  S
O443       Zr469   2.338       .  S
O443       Zr470   2.341       .  S
C444       C1433   1.480       .  S
C445        C903   1.481       .  S
C446        C820   1.476       .  S
C447       C1000   1.473       .  S
H448        O449   0.965       .  S
O449       Zr468   2.338       .  S
O449       Zr470   2.334       .  S
H450        O451   0.965       .  S
O451       Zr469   2.350       .  S
O451       Zr471   2.344       .  S
O452       Zr468   2.420       .  S
O452        C475   1.290       .  A
O453       Zr469   2.456       .  S
O453        C476   1.295       .  A
O454       Zr470   2.458       .  S
O454        C477   1.296       .  A
O455       Zr471   2.432       .  S
O455        C478   1.290       .  A
O456       Zr471   2.445       .  S
O456        C479   1.292       .  A
O457       Zr470   2.419       .  S
O457        C480   1.288       .  A
O458       Zr472   2.448       .  S
O458        C481   1.293       .  A
O459       Zr472   2.424       .  S
O459        C482   1.290       .  A
O460       Zr470   2.441       .  S
O460        C481   1.292       .  A
O461       Zr471   2.449       .  S
O461        C482   1.294       .  A
O462       Zr468   2.421       .  S
O462        C477   1.287       .  A
O463       Zr469   2.449       .  S
O463        C480   1.294       .  A
O464       Zr469   2.441       .  S
O464        C479   1.292       .  A
O465       Zr468   2.457       .  S
O465        C478   1.295       .  A
O466       Zr472   2.443       .  S
O466        C475   1.292       .  A
O467       Zr472   2.424       .  S
O467        C476   1.289       .  A
Zr468       O474   2.346       .  S
Zr468       O486   2.338       .  S
Zr469       O473   2.334       .  S
Zr469       O484   2.340       .  S
Zr470       O474   2.333       .  S
Zr470       O484   2.353       .  S
Zr471       O473   2.334       .  S
Zr471       O486   2.339       .  S
Zr472       O473   2.343       .  S
Zr472       O474   2.332       .  S
Zr472       O486   2.344       .  S
Zr472       O484   2.340       .  S
C475       C1253   1.480       .  S
C476        C920   1.470       .  S
C477       C1300   1.489       .  S
C478        C973   1.474       .  S
C479       C1333   1.469       .  S
C480       C1130   1.461       .  S
C481       C1030   1.471       .  S
C482        C773   1.476       .  S
H483        O484   0.965       .  S
H485        O486   0.966       .  S
O487       Zr523   2.452       .  S
O487        C498   1.295       .  A
O488       Zr522   2.439       .  S
O488        C499   1.292       .  A
O489       Zr495   2.449       .  S
O489        C500   1.294       .  A
O490       Zr495   2.418       .  S
O490        C501   1.288       .  A
O491       Zr525   2.457       .  S
O491        C501   1.296       .  A
O492       Zr524   2.424       .  S
O492        C500   1.289       .  A
O493       Zr495   2.443       .  S
O493        C499   1.292       .  A
O494       Zr495   2.439       .  S
O494        C498   1.292       .  A
Zr495       O496   2.345       .  S
Zr495       O497   2.325       .  S
Zr495       O505   2.348       .  S
Zr495       O503   2.338       .  S
O496       Zr522   2.338       .  S
O496       Zr525   2.342       .  S
O497       Zr523   2.331       .  S
O497       Zr524   2.341       .  S
C498       C1523   1.485       .  S
C499       C1230   1.468       .  S
C500        C853   1.471       .  S
C501       C1473   1.479       .  S
H502        O503   0.966       .  S
O503       Zr522   2.347       .  S
O503       Zr524   2.339       .  S
H504        O505   0.965       .  S
O505       Zr523   2.337       .  S
O505       Zr525   2.343       .  S
O506       Zr522   2.452       .  S
O506        C529   1.294       .  A
O507       Zr523   2.430       .  S
O507        C530   1.291       .  A
O508       Zr524   2.466       .  S
O508        C531   1.296       .  A
O509       Zr525   2.426       .  S
O509        C532   1.290       .  A
O510       Zr525   2.433       .  S
O510        C533   1.289       .  A
O511       Zr524   2.434       .  S
O511        C534   1.292       .  A
O512       Zr526   2.427       .  S
O512        C535   1.291       .  A
O513       Zr526   2.458       .  S
O513        C536   1.295       .  A
O514       Zr524   2.438       .  S
O514        C535   1.291       .  A
O515       Zr525   2.454       .  S
O515        C536   1.294       .  A
O516       Zr522   2.410       .  S
O516        C531   1.288       .  A
O517       Zr523   2.451       .  S
O517        C534   1.295       .  A
O518       Zr523   2.446       .  S
O518        C533   1.295       .  A
O519       Zr522   2.435       .  S
O519        C532   1.291       .  A
O520       Zr526   2.425       .  S
O520        C529   1.289       .  A
O521       Zr526   2.442       .  S
O521        C530   1.292       .  A
Zr522       O528   2.336       .  S
Zr522       O540   2.329       .  S
Zr523       O527   2.347       .  S
Zr523       O538   2.341       .  S
Zr524       O528   2.331       .  S
Zr524       O538   2.348       .  S
Zr525       O527   2.340       .  S
Zr525       O540   2.344       .  S
Zr526       O527   2.334       .  S
Zr526       O528   2.345       .  S
Zr526       O540   2.338       .  S
Zr526       O538   2.346       .  S
C529       C1500   1.468       .  S
C530       C1103   1.470       .  S
C531       C1163   1.488       .  S
C532        C673   1.463       .  S
C533       C1173   1.493       .  S
C534        C803   1.484       .  S
C535       C1403   1.488       .  S
C536        C873   1.479       .  S
H537        O538   0.965       .  S
H539        O540   0.965       .  S
O541       Zr577   2.439       .  S
O541        C552   1.292       .  A
O542       Zr576   2.456       .  S
O542        C553   1.296       .  A
O543       Zr549   2.410       .  S
O543        C554   1.285       .  A
O544       Zr549   2.453       .  S
O544        C555   1.296       .  A
O545       Zr579   2.421       .  S
O545        C555   1.288       .  A
O546       Zr578   2.471       .  S
O546        C554   1.299       .  A
O547       Zr549   2.456       .  S
O547        C553   1.294       .  A
O548       Zr549   2.464       .  S
O548        C552   1.297       .  A
Zr549       O550   2.336       .  S
Zr549       O551   2.344       .  S
Zr549       O559   2.334       .  S
Zr549       O557   2.345       .  S
O550       Zr576   2.332       .  S
O550       Zr579   2.350       .  S
O551       Zr577   2.347       .  S
O551       Zr578   2.344       .  S
C552       C1363   1.486       .  S
C553        C960   1.485       .  S
C554       C1060   1.491       .  S
C555        C783   1.481       .  S
H556        O557   0.964       .  S
O557       Zr576   2.339       .  S
O557       Zr578   2.338       .  S
H558        O559   0.964       .  S
O559       Zr577   2.350       .  S
O559       Zr579   2.344       .  S
O560       Zr576   2.427       .  S
O560        C583   1.290       .  A
O561       Zr577   2.469       .  S
O561        C584   1.298       .  A
O562       Zr578   2.451       .  S
O562        C585   1.294       .  A
O563       Zr579   2.434       .  S
O563        C586   1.291       .  A
O564       Zr579   2.450       .  S
O564        C587   1.294       .  A
O565       Zr578   2.431       .  S
O565        C588   1.290       .  A
O566       Zr580   2.442       .  S
O566        C589   1.293       .  A
O567       Zr580   2.430       .  S
O567        C590   1.290       .  A
O568       Zr578   2.451       .  S
O568        C589   1.294       .  A
O569       Zr579   2.450       .  S
O569        C590   1.294       .  A
O570       Zr576   2.424       .  S
O570        C585   1.291       .  A
O571       Zr577   2.440       .  S
O571        C588   1.292       .  A
O572       Zr577   2.439       .  S
O572        C587   1.291       .  A
O573       Zr576   2.458       .  S
O573        C586   1.296       .  A
O574       Zr580   2.443       .  S
O574        C583   1.293       .  A
O575       Zr580   2.421       .  S
O575        C584   1.287       .  A
Zr576       O582   2.346       .  S
Zr576       O594   2.341       .  S
Zr577       O581   2.338       .  S
Zr577       O592   2.341       .  S
Zr578       O582   2.340       .  S
Zr578       O592   2.352       .  S
Zr579       O581   2.335       .  S
Zr579       O594   2.341       .  S
Zr580       O581   2.345       .  S
Zr580       O582   2.328       .  S
Zr580       O594   2.338       .  S
Zr580       O592   2.341       .  S
C583       C1313   1.474       .  S
C584        C980   1.495       .  S
C585       C1260   1.488       .  S
C586        C930   1.473       .  S
C587       C1280   1.471       .  S
C588        C700   1.463       .  S
C589        C753   1.482       .  S
C590       C1010   1.469       .  S
H591        O592   0.965       .  S
H593        O594   0.966       .  S
O595       Zr631   2.415       .  S
O595        C606   1.287   1_455  A
O596       Zr630   2.440       .  S
O596        C607   1.293       .  A
O597       Zr603   2.454   1_545  S
O597        C608   1.294       .  A
O598       Zr603   2.423       .  S
O598        C609   1.289       .  A
O599       Zr633   2.442   1_655  S
O599        C609   1.293       .  A
O600       Zr632   2.429       .  S
O600        C608   1.291       .  A
O601       Zr603   2.433       .  S
O601        C607   1.291       .  A
O602       Zr603   2.458   1_545  S
O602        C606   1.297       .  A
Zr603       O604   2.346       .  S
Zr603       O605   2.332   1_565  S
Zr603       O613   2.346       .  S
Zr603       O611   2.340       .  S
O604       Zr630   2.334       .  S
O604       Zr633   2.328   1_655  S
O605       Zr631   2.349   1_655  S
O605       Zr632   2.337       .  S
C606       C1513   1.478       .  S
C607       C1113   1.469       .  S
C608        C833   1.480       .  S
C609       C1183   1.477       .  S
H610        O611   0.965       .  S
O611       Zr630   2.328       .  S
O611       Zr632   2.342   1_565  S
H612        O613   0.966       .  S
O613       Zr631   2.343   1_665  S
O613       Zr633   2.342   1_655  S
O614       Zr630   2.422       .  S
O614        C637   1.290   1_655  A
O615       Zr631   2.444       .  S
O615        C638   1.292       .  A
O616       Zr632   2.426       .  S
O616        C639   1.289   1_545  A
O617       Zr633   2.443   1_655  S
O617        C640   1.292       .  A
O618       Zr633   2.423       .  S
O618        C641   1.288       .  A
O619       Zr632   2.429   1_455  S
O619        C642   1.290       .  A
O620       Zr634   2.435   1_545  S
O620        C643   1.291       .  A
O621       Zr634   2.456       .  S
O621        C644   1.297       .  A
O622       Zr632   2.444   1_455  S
O622        C643   1.293       .  A
O623       Zr633   2.424       .  S
O623        C644   1.288       .  A
O624       Zr630   2.451       .  S
O624        C639   1.294       .  A
O625       Zr631   2.436       .  S
O625        C642   1.291       .  A
O626       Zr631   2.458       .  S
O626        C641   1.295   1_545  A
O627       Zr630   2.432       .  S
O627        C640   1.290       .  A
O628       Zr634   2.442       .  S
O628        C637   1.293       .  A
O629       Zr634   2.433   1_545  S
O629        C638   1.291       .  A
Zr630       O636   2.336       .  S
Zr630       O648   2.344   1_655  S
Zr631       O635   2.330   1_545  S
Zr631       O646   2.342       .  S
Zr632       O636   2.330   1_545  S
Zr632       O646   2.338   1_655  S
Zr633       O635   2.344       .  S
Zr633       O648   2.341       .  S
Zr634       O635   2.337       .  S
Zr634       O636   2.339   1_455  S
Zr634       O648   2.333       .  S
Zr634       O646   2.344   1_565  S
C637       C1323   1.476       .  S
C638       C1120   1.465       .  S
C639        C913   1.470       .  S
C640       C1420   1.463       .  S
C641        C863   1.470       .  S
C642       C1410   1.463       .  S
C643       C1020   1.474       .  S
C644        C813   1.485       .  S
H645        O646   0.965       .  S
H647        O648   0.963       .  S
C649        C650   1.408       .  A
C649        C654   1.404       .  A
C649        H656   1.083       .  S
C650        C651   1.415   1_455  A
C651        C652   1.391       .  A
C651       Br658   1.911       .  S
C652        C653   1.397   1_655  A
C652        H657   1.084       .  S
C653        C654   1.412       .  A
C654       Br655   1.919       .  S
C659        C660   1.406       .  A
C659        C664   1.400       .  A
C659        H666   1.083       .  S
C660        C661   1.418       .  A
C661        C662   1.402       .  A
C661       Br668   1.924   1_655  S
C662        C663   1.405       .  A
C662        H667   1.081       .  S
C663        C664   1.420       .  A
C664       Br665   1.924       .  S
C669        C670   1.401       .  A
C669        C674   1.395       .  A
C669        H676   1.084       .  S
C670        C671   1.407       .  A
C671        C672   1.394       .  A
C671       Br678   1.917       .  S
C672        C673   1.401       .  A
C672        H677   1.084       .  S
C673        C674   1.407       .  A
C674       Br675   1.912       .  S
C679        C680   1.412       .  A
C679        C684   1.401       .  A
C679        H686   1.081       .  S
C680        C681   1.421       .  A
C681        C682   1.392       .  A
C681       Br688   1.924       .  S
C682        C683   1.406       .  A
C682        H687   1.083       .  S
C683        C684   1.412       .  A
C684       Br685   1.913       .  S
C689        C690   1.405       .  A
C689        C694   1.402       .  A
C689        H696   1.083       .  S
C690        C691   1.412       .  A
C691        C692   1.389       .  A
C691       Br698   1.924       .  S
C692        C693   1.400       .  A
C692        H697   1.084       .  S
C693        C694   1.409       .  A
C694       Br695   1.918       .  S
C699        C700   1.400       .  A
C699        C704   1.397       .  A
C699        H706   1.084       .  S
C700        C701   1.406       .  A
C701        C702   1.396       .  A
C701       Br708   1.913       .  S
C702        C703   1.401       .  A
C702        H707   1.084       .  S
C703        C704   1.410       .  A
C704       Br705   1.920       .  S
C709        C710   1.404       .  A
C709        C714   1.403       .  A
C709        H716   1.084       .  S
C710        C711   1.410       .  A
C711        C712   1.390       .  A
C711       Br718   1.920   1_455  S
C712        C713   1.403       .  A
C712        H717   1.084       .  S
C713        C714   1.414       .  A
C714       Br715   1.920       .  S
C719        C720   1.406       .  A
C719        C724   1.399       .  A
C719        H726   1.083   1_554  S
C720        C721   1.415       .  A
C721        C722   1.396       .  A
C721       Br728   1.924   1_655  S
C722        C723   1.403       .  A
C722        H727   1.084   1_655  S
C723        C724   1.412       .  A
C724       Br725   1.918       .  S
C729        C730   1.404       .  A
C729        C734   1.399       .  A
C729        H736   1.084       .  S
C730        C731   1.414       .  A
C731        C732   1.396       .  A
C731       Br738   1.923       .  S
C732        C733   1.401       .  A
C732        H737   1.084       .  S
C733        C734   1.412       .  A
C734       Br735   1.919       .  S
C739        C740   1.400       .  A
C739        C744   1.397       .  A
C739        H746   1.083       .  S
C740        C741   1.407   1_655  A
C741        C742   1.394       .  A
C741       Br748   1.919   1_554  S
C742        C743   1.398       .  A
C742        H747   1.084       .  S
C743        C744   1.408   1_455  A
C744       Br745   1.919       .  S
C749        C750   1.410       .  A
C749        C754   1.406       .  A
C749        H756   1.083       .  S
C750        C751   1.417       .  A
C751        C752   1.396       .  A
C751       Br758   1.925       .  S
C752        C753   1.402       .  A
C752        H757   1.084       .  S
C753        C754   1.410       .  A
C754       Br755   1.918       .  S
C759        C760   1.410   1_455  A
C759        C764   1.402       .  A
C759        H766   1.082       .  S
C760        C761   1.422       .  A
C761        C762   1.397       .  A
C761       Br768   1.918       .  S
C762        C763   1.398       .  A
C762        H767   1.083       .  S
C763        C764   1.411   1_655  A
C764       Br765   1.918       .  S
C769        C770   1.410       .  A
C769        C774   1.395       .  A
C769        H776   1.083       .  S
C770        C771   1.419       .  A
C771        C772   1.399       .  A
C771       Br778   1.922       .  S
C772        C773   1.403       .  A
C772        H777   1.084       .  S
C773        C774   1.407       .  A
C774       Br775   1.919       .  S
C779        C780   1.408       .  A
C779        C784   1.399       .  A
C779        H786   1.082       .  S
C780        C781   1.420       .  A
C781        C782   1.396       .  A
C781       Br788   1.925       .  S
C782        C783   1.402       .  A
C782        H787   1.084       .  S
C783        C784   1.414       .  A
C784       Br785   1.921       .  S
C789        C790   1.404       .  A
C789        C794   1.399       .  A
C789        H796   1.083       .  S
C790        C791   1.408       .  A
C791        C792   1.395       .  A
C791       Br798   1.915       .  S
C792        C793   1.401       .  A
C792        H797   1.084       .  S
C793        C794   1.408       .  A
C794       Br795   1.919       .  S
C799        C800   1.410       .  A
C799        C804   1.394       .  A
C799        H806   1.082       .  S
C800        C801   1.419       .  A
C801        C802   1.405       .  A
C801       Br808   1.922       .  S
C802        C803   1.407       .  A
C802        H807   1.084       .  S
C803        C804   1.407       .  A
C804       Br805   1.914       .  S
C809        C810   1.407       .  A
C809        C814   1.402       .  A
C809        H816   1.082       .  S
C810        C811   1.420       .  A
C811        C812   1.396       .  A
C811       Br818   1.924       .  S
C812        C813   1.401       .  A
C812        H817   1.084       .  S
C813        C814   1.416       .  A
C814       Br815   1.921       .  S
C819        C820   1.405       .  A
C819        C824   1.399       .  A
C819        H826   1.084       .  S
C820        C821   1.409       .  A
C821        C822   1.399       .  A
C821       Br828   1.921       .  S
C822        C823   1.405       .  A
C822        H827   1.084       .  S
C823        C824   1.409       .  A
C824       Br825   1.920       .  S
C829        C830   1.408       .  A
C829        C834   1.402       .  A
C829        H836   1.083       .  S
C830        C831   1.410       .  A
C831        C832   1.395       .  A
C831       Br838   1.923       .  S
C832        C833   1.406       .  A
C832        H837   1.084       .  S
C833        C834   1.410       .  A
C834       Br835   1.920       .  S
C839        C840   1.400   1_545  A
C839        C844   1.395   1_545  A
C839        H846   1.084       .  S
C840        C841   1.408       .  A
C841        C842   1.399       .  A
C841       Br848   1.919       .  S
C842        C843   1.402       .  A
C842        H847   1.083       .  S
C843        C844   1.406       .  A
C844       Br845   1.918   1_565  S
C849        C850   1.406       .  A
C849        C854   1.404       .  A
C849        H856   1.083       .  S
C850        C851   1.411       .  A
C851        C852   1.395       .  A
C851       Br858   1.921       .  S
C852        C853   1.401       .  A
C852        H857   1.084       .  S
C853        C854   1.409       .  A
C854       Br855   1.919       .  S
C859        C860   1.402       .  A
C859        C864   1.400       .  A
C859        H866   1.083       .  S
C860        C861   1.408       .  A
C861        C862   1.400       .  A
C861       Br868   1.918   1_565  S
C862        C863   1.401       .  A
C862        H867   1.083   1_565  S
C863        C864   1.410       .  A
C864       Br865   1.921       .  S
C869        C870   1.404       .  A
C869        C874   1.404       .  A
C869        H876   1.083       .  S
C870        C871   1.408       .  A
C871        C872   1.400       .  A
C871       Br878   1.919       .  S
C872        C873   1.404       .  A
C872        H877   1.084       .  S
C873        C874   1.409       .  A
C874       Br875   1.910       .  S
C879        C880   1.402       .  A
C879        C884   1.402       .  A
C879        H886   1.082       .  S
C880        C881   1.405       .  A
C881        C882   1.402       .  A
C881       Br888   1.913       .  S
C882        C883   1.405       .  A
C882        H887   1.084       .  S
C883        C884   1.412       .  A
C884       Br885   1.919       .  S
C889        C890   1.404       .  A
C889        C894   1.399       .  A
C889        H896   1.084       .  S
C890        C891   1.411       .  A
C891        C892   1.399       .  A
C891       Br898   1.920       .  S
C892        C893   1.404       .  A
C892        H897   1.084       .  S
C893        C894   1.411       .  A
C894       Br895   1.920       .  S
C899        C900   1.407       .  A
C899        C904   1.395       .  A
C899        H906   1.083   1_545  S
C900        C901   1.416       .  A
C901        C902   1.403       .  A
C901       Br908   1.920       .  S
C902        C903   1.406       .  A
C902        H907   1.083       .  S
C903        C904   1.410       .  A
C904       Br905   1.918       .  S
C909        C910   1.404       .  A
C909        C914   1.401       .  A
C909        H916   1.083       .  S
C910        C911   1.407       .  A
C911        C912   1.397       .  A
C911       Br918   1.919   1_565  S
C912        C913   1.402       .  A
C912        H917   1.084       .  S
C913        C914   1.409       .  A
C914       Br915   1.919       .  S
C919        C920   1.402       .  A
C919        C924   1.395       .  A
C919        H926   1.084       .  S
C920        C921   1.407       .  A
C921        C922   1.406       .  A
C921       Br928   1.917       .  S
C922        C923   1.407       .  A
C922        H927   1.083       .  S
C923        C924   1.405       .  A
C924       Br925   1.917       .  S
C929        C930   1.402       .  A
C929        C934   1.403       .  A
C929        H936   1.084       .  S
C930        C931   1.407       .  A
C931        C932   1.400       .  A
C931       Br938   1.915       .  S
C932        C933   1.403       .  A
C932        H937   1.084       .  S
C933        C934   1.410       .  A
C934       Br935   1.916       .  S
C939        C940   1.404       .  A
C939        C944   1.397       .  A
C939        H946   1.084       .  S
C940        C941   1.409       .  A
C941        C942   1.397       .  A
C941       Br948   1.920       .  S
C942        C943   1.403       .  A
C942        H947   1.084       .  S
C943        C944   1.408       .  A
C944       Br945   1.920       .  S
C949        C950   1.402       .  A
C949        C954   1.400       .  A
C949        H956   1.084       .  S
C950        C951   1.409   1_565  A
C951        C952   1.402       .  A
C951       Br958   1.918       .  S
C952        C953   1.402   1_545  A
C952        H957   1.084       .  S
C953        C954   1.408       .  A
C954       Br955   1.915       .  S
C959        C960   1.405       .  A
C959        C964   1.409       .  A
C959        H966   1.083       .  S
C960        C961   1.412       .  A
C961        C962   1.398       .  A
C961       Br968   1.917       .  S
C962        C963   1.403       .  A
C962        H967   1.084       .  S
C963        C964   1.415       .  A
C964       Br965   1.919       .  S
C969        C970   1.401       .  A
C969        C974   1.399       .  A
C969        H976   1.084       .  S
C970        C971   1.412       .  A
C971        C972   1.401       .  A
C971       Br978   1.920       .  S
C972        C973   1.402       .  A
C972        H977   1.084       .  S
C973        C974   1.408       .  A
C974       Br975   1.910       .  S
C979        C980   1.407       .  A
C979        C984   1.407       .  A
C979        H986   1.083       .  S
C980        C981   1.420       .  A
C981        C982   1.394       .  A
C981       Br988   1.925       .  S
C982        C983   1.404   1_455  A
C982        H987   1.082       .  S
C983        C984   1.418   1_655  A
C984       Br985   1.921   1_455  S
C989        C990   1.405       .  A
C989        C994   1.402       .  A
C989        H996   1.083       .  S
C990        C991   1.413       .  A
C991        C992   1.399       .  A
C991       Br998   1.920       .  S
C992        C993   1.403       .  A
C992        H997   1.084       .  S
C993        C994   1.412       .  A
C994       Br995   1.920       .  S
C999       C1000   1.404       .  A
C999       C1004   1.405       .  A
C999       H1006   1.083       .  S
C1000      C1001   1.408       .  A
C1001      C1002   1.395       .  A
C1001     Br1008   1.917       .  S
C1002      C1003   1.401   1_655  A
C1002      H1007   1.084       .  S
C1003      C1004   1.411   1_455  A
C1004     Br1005   1.918   1_655  S
C1009      C1010   1.402       .  A
C1009      C1014   1.398       .  A
C1009      H1016   1.082       .  S
C1010      C1011   1.408       .  A
C1011      C1012   1.401       .  A
C1011     Br1018   1.920       .  S
C1012      C1013   1.404       .  A
C1012      H1017   1.083       .  S
C1013      C1014   1.406       .  A
C1014     Br1015   1.918       .  S
C1019      C1020   1.404       .  A
C1019      C1024   1.398       .  A
C1019      H1026   1.084       .  S
C1020      C1021   1.409       .  A
C1021      C1022   1.400       .  A
C1021     Br1028   1.920       .  S
C1022      C1023   1.404       .  A
C1022      H1027   1.084       .  S
C1023      C1024   1.408       .  A
C1024     Br1025   1.919       .  S
C1029      C1030   1.402       .  A
C1029      C1034   1.396       .  A
C1029      H1036   1.084       .  S
C1030      C1031   1.407       .  A
C1031      C1032   1.405       .  A
C1031     Br1038   1.918       .  S
C1032      C1033   1.406       .  A
C1032      H1037   1.083       .  S
C1033      C1034   1.408       .  A
C1034     Br1035   1.920       .  S
C1039      C1040   1.405       .  A
C1039      C1044   1.399       .  A
C1039      H1046   1.084       .  S
C1040      C1041   1.411       .  A
C1041      C1042   1.399       .  A
C1041     Br1048   1.920       .  S
C1042      C1043   1.404       .  A
C1042      H1047   1.084       .  S
C1043      C1044   1.410       .  A
C1044     Br1045   1.920       .  S
C1049      C1050   1.406       .  A
C1049      C1054   1.403       .  A
C1049      H1056   1.083       .  S
C1050      C1051   1.410       .  A
C1051      C1052   1.395       .  A
C1051     Br1058   1.921   1_565  S
C1052      C1053   1.401       .  A
C1052      H1057   1.082       .  S
C1053      C1054   1.408       .  A
C1054     Br1055   1.919       .  S
C1059      C1060   1.406       .  A
C1059      C1064   1.402       .  A
C1059      H1066   1.083       .  S
C1060      C1061   1.422       .  A
C1061      C1062   1.394       .  A
C1061     Br1068   1.923       .  S
C1062      C1063   1.400       .  A
C1062      H1067   1.083       .  S
C1063      C1064   1.416       .  A
C1064     Br1065   1.922       .  S
C1069      C1070   1.406       .  A
C1069      C1074   1.395       .  A
C1069      H1076   1.084       .  S
C1070      C1071   1.410       .  A
C1071      C1072   1.399       .  A
C1071     Br1078   1.921       .  S
C1072      C1073   1.406       .  A
C1072      H1077   1.084       .  S
C1073      C1074   1.408       .  A
C1074     Br1075   1.921       .  S
C1079      C1080   1.403   1_565  A
C1079      C1084   1.395       .  A
C1079      H1086   1.084       .  S
C1080      C1081   1.409       .  A
C1081      C1082   1.402       .  A
C1081     Br1088   1.920       .  S
C1082      C1083   1.407       .  A
C1082      H1087   1.083       .  S
C1083      C1084   1.412   1_545  A
C1084     Br1085   1.923       .  S
C1089      C1090   1.403       .  A
C1089      C1094   1.396       .  A
C1089      H1096   1.084       .  S
C1090      C1091   1.407   1_565  A
C1091      C1092   1.395   1_545  A
C1091     Br1098   1.920       .  S
C1092      C1093   1.403       .  A
C1092      H1097   1.084   1_565  S
C1093      C1094   1.407       .  A
C1094     Br1095   1.919       .  S
C1099      C1100   1.404       .  A
C1099      C1104   1.398       .  A
C1099      H1106   1.084       .  S
C1100      C1101   1.405       .  A
C1101      C1102   1.395       .  A
C1101     Br1108   1.919       .  S
C1102      C1103   1.401       .  A
C1102      H1107   1.078       .  S
C1103      C1104   1.406       .  A
C1104     Br1105   1.913       .  S
C1109      C1110   1.407       .  A
C1109      C1114   1.403       .  A
C1109      H1116   1.083       .  S
C1110      C1111   1.410       .  A
C1111      C1112   1.394       .  A
C1111     Br1118   1.922       .  S
C1112      C1113   1.401       .  A
C1112      H1117   1.084       .  S
C1113      C1114   1.407       .  A
C1114     Br1115   1.919       .  S
C1119      C1120   1.400       .  A
C1119      C1124   1.393       .  A
C1119      H1126   1.084       .  S
C1120      C1121   1.406       .  A
C1121      C1122   1.404       .  A
C1121     Br1128   1.917       .  S
C1122      C1123   1.406       .  A
C1122      H1127   1.083       .  S
C1123      C1124   1.407       .  A
C1124     Br1125   1.917       .  S
C1129      C1130   1.399       .  A
C1129      C1134   1.396       .  A
C1129      H1136   1.084       .  S
C1130      C1131   1.406       .  A
C1131      C1132   1.398       .  A
C1131     Br1138   1.918       .  S
C1132      C1133   1.403       .  A
C1132      H1137   1.084       .  S
C1133      C1134   1.409       .  A
C1134     Br1135   1.915       .  S
C1139      C1140   1.402       .  A
C1139      C1144   1.397       .  A
C1139      H1146   1.084       .  S
C1140      C1141   1.408       .  A
C1141      C1142   1.394       .  A
C1141     Br1148   1.920       .  S
C1142      C1143   1.402       .  A
C1142      H1147   1.084       .  S
C1143      C1144   1.409       .  A
C1144     Br1145   1.919       .  S
C1149      C1150   1.399       .  A
C1149      C1154   1.396       .  A
C1149      H1156   1.084       .  S
C1150      C1151   1.409       .  A
C1151      C1152   1.396       .  A
C1151     Br1158   1.918       .  S
C1152      C1153   1.399       .  A
C1152      H1157   1.084       .  S
C1153      C1154   1.406       .  A
C1154     Br1155   1.912       .  S
C1159      C1160   1.408   1_455  A
C1159      C1164   1.400       .  A
C1159      H1166   1.083   1_455  S
C1160      C1161   1.415   1_655  A
C1161      C1162   1.392       .  A
C1161     Br1168   1.923       .  S
C1162      C1163   1.406       .  A
C1162      H1167   1.084       .  S
C1163      C1164   1.409       .  A
C1164     Br1165   1.906       .  S
C1169      C1170   1.409       .  A
C1169      C1174   1.399       .  A
C1169      H1176   1.081       .  S
C1170      C1171   1.418       .  A
C1171      C1172   1.398       .  A
C1171     Br1178   1.925       .  S
C1172      C1173   1.405       .  A
C1172      H1177   1.080       .  S
C1173      C1174   1.417       .  A
C1174     Br1175   1.924       .  S
C1179      C1180   1.402       .  A
C1179      C1184   1.394       .  A
C1179      H1186   1.084       .  S
C1180      C1181   1.409       .  A
C1181      C1182   1.400       .  A
C1181     Br1188   1.920       .  S
C1182      C1183   1.406       .  A
C1182      H1187   1.084       .  S
C1183      C1184   1.413       .  A
C1184     Br1185   1.924       .  S
C1189      C1190   1.403       .  A
C1189      C1194   1.399       .  A
C1189      H1196   1.083       .  S
C1190      C1191   1.407       .  A
C1191      C1192   1.395       .  A
C1191     Br1198   1.920       .  S
C1192      C1193   1.403       .  A
C1192      H1197   1.084       .  S
C1193      C1194   1.408       .  A
C1194     Br1195   1.918       .  S
C1199      C1200   1.403       .  A
C1199      C1204   1.393       .  A
C1199      H1206   1.085       .  S
C1200      C1201   1.408       .  A
C1201      C1202   1.405       .  A
C1201     Br1208   1.918       .  S
C1202      C1203   1.410       .  A
C1202      H1207   1.083       .  S
C1203      C1204   1.412       .  A
C1204     Br1205   1.920       .  S
C1209      C1210   1.403       .  A
C1209      C1214   1.400       .  A
C1209      H1216   1.083       .  S
C1210      C1211   1.409       .  A
C1211      C1212   1.398       .  A
C1211     Br1218   1.917       .  S
C1212      C1213   1.400       .  A
C1212      H1217   1.084       .  S
C1213      C1214   1.407       .  A
C1214     Br1215   1.920       .  S
C1219      C1220   1.404       .  A
C1219      C1224   1.401   1_455  A
C1219      H1226   1.084       .  S
C1220      C1221   1.411   1_455  A
C1221      C1222   1.399       .  A
C1221     Br1228   1.920       .  S
C1222      C1223   1.403       .  A
C1222      H1227   1.084       .  S
C1223      C1224   1.405       .  A
C1224     Br1225   1.908       .  S
C1229      C1230   1.400       .  A
C1229      C1234   1.397       .  A
C1229      H1236   1.082       .  S
C1230      C1231   1.406       .  A
C1231      C1232   1.400       .  A
C1231     Br1238   1.916       .  S
C1232      C1233   1.404       .  A
C1232      H1237   1.084       .  S
C1233      C1234   1.408       .  A
C1234     Br1235   1.918       .  S
C1239      C1240   1.404       .  A
C1239      C1244   1.398       .  A
C1239      H1246   1.084       .  S
C1240      C1241   1.411       .  A
C1241      C1242   1.399       .  A
C1241     Br1248   1.919       .  S
C1242      C1243   1.404       .  A
C1242      H1247   1.084       .  S
C1243      C1244   1.410       .  A
C1244     Br1245   1.920       .  S
C1249      C1250   1.410       .  A
C1249      C1254   1.400       .  A
C1249      H1256   1.083       .  S
C1250      C1251   1.409       .  A
C1251      C1252   1.391       .  A
C1251     Br1258   1.923       .  S
C1252      C1253   1.404       .  A
C1252      H1257   1.080       .  S
C1253      C1254   1.410       .  A
C1254     Br1255   1.921       .  S
C1259      C1260   1.406       .  A
C1259      C1264   1.394       .  A
C1259      H1266   1.084       .  S
C1260      C1261   1.412       .  A
C1261      C1262   1.403       .  A
C1261     Br1268   1.921       .  S
C1262      C1263   1.412       .  A
C1262      H1267   1.083       .  S
C1263      C1264   1.418       .  A
C1264     Br1265   1.926       .  S
C1269      C1270   1.400       .  A
C1269      C1274   1.397       .  A
C1269      H1276   1.083       .  S
C1270      C1271   1.405       .  A
C1271      C1272   1.398       .  A
C1271     Br1278   1.916       .  S
C1272      C1273   1.403       .  A
C1272      H1277   1.084       .  S
C1273      C1274   1.410       .  A
C1274     Br1275   1.919       .  S
C1279      C1280   1.403       .  A
C1279      C1284   1.405       .  A
C1279      H1286   1.083       .  S
C1280      C1281   1.409       .  A
C1281      C1282   1.394       .  A
C1281     Br1288   1.919       .  S
C1282      C1283   1.400       .  A
C1282      H1287   1.084       .  S
C1283      C1284   1.411       .  A
C1284     Br1285   1.917       .  S
C1289      C1290   1.402       .  A
C1289      C1294   1.397       .  A
C1289      H1296   1.084       .  S
C1290      C1291   1.411       .  A
C1291      C1292   1.395       .  A
C1291     Br1298   1.921       .  S
C1292      C1293   1.401       .  A
C1292      H1297   1.084       .  S
C1293      C1294   1.410       .  A
C1294     Br1295   1.920       .  S
C1299      C1300   1.407       .  A
C1299      C1304   1.406   1_545  A
C1299      H1306   1.083       .  S
C1300      C1301   1.418       .  A
C1301      C1302   1.389   1_545  A
C1301     Br1308   1.919       .  S
C1302      C1303   1.400       .  A
C1302      H1307   1.083       .  S
C1303      C1304   1.416       .  A
C1304     Br1305   1.920       .  S
C1309      C1310   1.407       .  A
C1309      C1314   1.398       .  A
C1309      H1316   1.083       .  S
C1310      C1311   1.410       .  A
C1311      C1312   1.397       .  A
C1311     Br1318   1.921       .  S
C1312      C1313   1.403       .  A
C1312      H1317   1.082       .  S
C1313      C1314   1.408       .  A
C1314     Br1315   1.921       .  S
C1319      C1320   1.406       .  A
C1319      C1324   1.398       .  A
C1319      H1326   1.083       .  S
C1320      C1321   1.408   1_455  A
C1321      C1322   1.394       .  A
C1321     Br1328   1.921       .  S
C1322      C1323   1.406   1_655  A
C1322      H1327   1.084       .  S
C1323      C1324   1.411       .  A
C1324     Br1325   1.920       .  S
C1329      C1330   1.398       .  A
C1329      C1334   1.393       .  A
C1329      H1336   1.084       .  S
C1330      C1331   1.409       .  A
C1331      C1332   1.404       .  A
C1331     Br1338   1.916       .  S
C1332      C1333   1.403       .  A
C1332      H1337   1.083       .  S
C1333      C1334   1.407       .  A
C1334     Br1335   1.914       .  S
C1339      C1340   1.404       .  A
C1339      C1344   1.398       .  A
C1339      H1346   1.084       .  S
C1340      C1341   1.410       .  A
C1341      C1342   1.395       .  A
C1341     Br1348   1.922       .  S
C1342      C1343   1.403       .  A
C1342      H1347   1.084       .  S
C1343      C1344   1.410       .  A
C1344     Br1345   1.920       .  S
C1349      C1350   1.408       .  A
C1349      C1354   1.407       .  A
C1349      H1356   1.083       .  S
C1350      C1351   1.420       .  A
C1351      C1352   1.396       .  A
C1351     Br1358   1.929       .  S
C1352      C1353   1.407       .  A
C1352      H1357   1.081       .  S
C1353      C1354   1.420       .  A
C1354     Br1355   1.922   1_554  S
C1359      C1360   1.406       .  A
C1359      C1364   1.399       .  A
C1359      H1366   1.084       .  S
C1360      C1361   1.412       .  A
C1361      C1362   1.404       .  A
C1361     Br1368   1.919       .  S
C1362      C1363   1.404       .  A
C1362      H1367   1.079       .  S
C1363      C1364   1.411       .  A
C1364     Br1365   1.916       .  S
C1369      C1370   1.406       .  A
C1369      C1374   1.399       .  A
C1369      H1376   1.083       .  S
C1370      C1371   1.415       .  A
C1371      C1372   1.404       .  A
C1371     Br1378   1.921       .  S
C1372      C1373   1.410       .  A
C1372      H1377   1.083       .  S
C1373      C1374   1.415       .  A
C1374     Br1375   1.912       .  S
C1379      C1380   1.409       .  A
C1379      C1384   1.403       .  A
C1379      H1386   1.083       .  S
C1380      C1381   1.411   1_554  A
C1381      C1382   1.397       .  A
C1381     Br1388   1.922       .  S
C1382      C1383   1.404   1_556  A
C1382      H1387   1.081       .  S
C1383      C1384   1.408       .  A
C1384     Br1385   1.919       .  S
C1389      C1390   1.404       .  A
C1389      C1394   1.404       .  A
C1389      H1396   1.083       .  S
C1390      C1391   1.408       .  A
C1391      C1392   1.398       .  A
C1391     Br1398   1.919       .  S
C1392      C1393   1.402       .  A
C1392      H1397   1.084   1_554  S
C1393      C1394   1.408       .  A
C1394     Br1395   1.917       .  S
C1399      C1400   1.406       .  A
C1399      C1404   1.392       .  A
C1399      H1406   1.082       .  S
C1400      C1401   1.415       .  A
C1401      C1402   1.397       .  A
C1401     Br1408   1.920       .  S
C1402      C1403   1.407       .  A
C1402      H1407   1.083       .  S
C1403      C1404   1.413       .  A
C1404     Br1405   1.915       .  S
C1409      C1410   1.400       .  A
C1409      C1414   1.399       .  A
C1409      H1416   1.084       .  S
C1410      C1411   1.408       .  A
C1411      C1412   1.393       .  A
C1411     Br1418   1.916   1_455  S
C1412      C1413   1.399       .  A
C1412      H1417   1.084   1_455  S
C1413      C1414   1.410       .  A
C1414     Br1415   1.917       .  S
C1419      C1420   1.401       .  A
C1419      C1424   1.402       .  A
C1419      H1426   1.084       .  S
C1420      C1421   1.407       .  A
C1421      C1422   1.392       .  A
C1421     Br1428   1.916   1_655  S
C1422      C1423   1.399       .  A
C1422      H1427   1.084       .  S
C1423      C1424   1.411       .  A
C1424     Br1425   1.917       .  S
C1429      C1430   1.408       .  A
C1429      C1434   1.397       .  A
C1429      H1436   1.083       .  S
C1430      C1431   1.410       .  A
C1431      C1432   1.394       .  A
C1431     Br1438   1.921       .  S
C1432      C1433   1.406       .  A
C1432      H1437   1.083       .  S
C1433      C1434   1.412       .  A
C1434     Br1435   1.922       .  S
C1439      C1440   1.401       .  A
C1439      C1444   1.396       .  A
C1439      H1446   1.084       .  S
C1440      C1441   1.411   1_655  A
C1441      C1442   1.396       .  A
C1441     Br1448   1.920       .  S
C1442      C1443   1.400       .  A
C1442      H1447   1.084       .  S
C1443      C1444   1.412   1_455  A
C1444     Br1445   1.921       .  S
C1449      C1450   1.410       .  A
C1449      C1454   1.408       .  A
C1449      H1456   1.083       .  S
C1450      C1451   1.410       .  A
C1451      C1452   1.394       .  A
C1451     Br1458   1.923       .  S
C1452      C1453   1.405       .  A
C1452      H1457   1.084       .  S
C1453      C1454   1.409       .  A
C1454     Br1455   1.918       .  S
C1459      C1460   1.411       .  A
C1459      C1464   1.399       .  A
C1459      H1466   1.079       .  S
C1460      C1461   1.427       .  A
C1461      C1462   1.400       .  A
C1461     Br1468   1.923       .  S
C1462      C1463   1.398       .  A
C1462      H1467   1.077       .  S
C1463      C1464   1.420       .  A
C1464     Br1465   1.928       .  S
C1469      C1470   1.399       .  A
C1469      C1474   1.394       .  A
C1469      H1476   1.084       .  S
C1470      C1471   1.414       .  A
C1471      C1472   1.401       .  A
C1471     Br1478   1.921       .  S
C1472      C1473   1.404       .  A
C1472      H1477   1.084       .  S
C1473      C1474   1.415       .  A
C1474     Br1475   1.919       .  S
C1479      C1480   1.404       .  A
C1479      C1484   1.405   1_545  A
C1479      H1486   1.083       .  S
C1480      C1481   1.411       .  A
C1481      C1482   1.395       .  A
C1481     Br1488   1.915       .  S
C1482      C1483   1.400   1_545  A
C1482      H1487   1.084   1_545  S
C1483      C1484   1.411       .  A
C1484     Br1485   1.918       .  S
C1489      C1490   1.401       .  A
C1489      C1494   1.393       .  A
C1489      H1496   1.084       .  S
C1490      C1491   1.411       .  A
C1491      C1492   1.400       .  A
C1491     Br1498   1.919       .  S
C1492      C1493   1.402       .  A
C1492      H1497   1.083       .  S
C1493      C1494   1.408       .  A
C1494     Br1495   1.919       .  S
C1499      C1500   1.402       .  A
C1499      C1504   1.394       .  A
C1499      H1506   1.084       .  S
C1500      C1501   1.406       .  A
C1501      C1502   1.405       .  A
C1501     Br1508   1.917       .  S
C1502      C1503   1.406       .  A
C1502      H1507   1.083       .  S
C1503      C1504   1.406       .  A
C1504     Br1505   1.920       .  S
C1509      C1510   1.400   1_455  A
C1509      C1514   1.395       .  A
C1509      H1516   1.084       .  S
C1510      C1511   1.414       .  A
C1511      C1512   1.400       .  A
C1511     Br1518   1.921       .  S
C1512      C1513   1.403       .  A
C1512      H1517   1.084       .  S
C1513      C1514   1.415   1_655  A
C1514     Br1515   1.921       .  S
C1519      C1520   1.406       .  A
C1519      C1524   1.393       .  A
C1519      H1526   1.082       .  S
C1520      C1521   1.417       .  A
C1521      C1522   1.407       .  A
C1521     Br1528   1.920   1_565  S
C1522      C1523   1.407       .  A
C1522      H1527   1.084       .  S
C1523      C1524   1.409       .  A
C1524     Br1525   1.914       .  S
C1529      C1530   1.401       .  A
C1529      C1534   1.395       .  A
C1529      H1536   1.083       .  S
C1530      C1531   1.417       .  A
C1531      C1532   1.400       .  A
C1531     Br1538   1.922       .  S
C1532      C1533   1.401       .  A
C1532      H1537   1.084       .  S
C1533      C1534   1.411       .  A
C1534     Br1535   1.910       .  S
C1539      C1540   1.402       .  A
C1539      C1544   1.396       .  A
C1539      H1546   1.084       .  S
C1540      C1541   1.410       .  A
C1541      C1542   1.396       .  A
C1541     Br1548   1.920       .  S
C1542      C1543   1.403       .  A
C1542      H1547   1.084       .  S
C1543      C1544   1.411       .  A
C1544     Br1545   1.921       .  S
