geometry optimzed in LAMMPS
_audit_creation_date              2020-11-30 
_audit_creation_method            'lammps2cif' 
_symmetry_space_group_name_H-M    'P1' 
_symmetry_Int_Tables_number       1 
_symmetry_cell_setting            triclinic 
loop_ 
_symmetry_equiv_pos_as_xyz 
  x,y,z 
_cell_length_a                    52.59226423 
_cell_length_b                    52.08513353883813 
_cell_length_c                    26.605018973372676 
_cell_angle_alpha                 91.78338844312007 
_cell_angle_beta                  89.77530765424413 
_cell_angle_gamma                 120.33973951239805 
loop_ 
_atom_site_label 
_atom_site_type_symbol 
_atom_site_fract_x 
_atom_site_fract_y 
_atom_site_fract_z 
_atom_site_charge 
O1          O  0.31323072  0.25198266  0.03034401    -0.78000
C2          C  0.25023719  0.25175717  0.14022470     0.83000
O3          O  0.21707138  0.17996054  0.96644550    -0.79200
O4          O  0.19177346  0.25387426  0.02208584    -0.80600
O5          O  0.28987686  0.32660195  0.97535283    -0.80400
O6          O  0.32599755  0.28693263  0.97385014    -0.79100
Zn7        Zn  0.26979502  0.23510541  0.04252551     1.55700
O8          O  0.25559812  0.31636109  0.03330978    -0.80500
Cd9        Cd  0.28620217  0.28524910  0.95962434     1.59700
Cd10       Cd  0.22302008  0.22189804  0.95270597     1.59600
O11         O  0.27727333  0.27575042  0.88307921    -0.80500
O12         O  0.25382233  0.25313702  0.99950912    -1.91000
Cd13       Cd  0.23536502  0.27111548  0.04269194     1.59900
O14         O  0.23604841  0.23142812  0.87894050    -0.80400
O15         O  0.23804806  0.26422376  0.11823192    -0.79100
C16         C  0.23032561  0.17229234  0.99736713     0.83500
C17         C  0.33239912  0.27158272  0.00208957     0.83100
O18         O  0.26339927  0.24055486  0.11589329    -0.78000
C19         C  0.27599949  0.33469431  0.00535326     0.83900
O20         O  0.25006363  0.19110149  0.02774187    -0.78100
C21         C  0.25710671  0.25367242  0.85777189     0.84100
C22         C  0.17489518  0.23551177  0.98790677     0.84400
O23         O  0.18318341  0.22141420  0.95845821    -0.80500
O24         O  0.31047588  0.24751314  0.52774649    -0.78000
C25         C  0.25153898  0.24698685  0.63989629     0.83000
O26         O  0.21494620  0.17613479  0.45832909    -0.79200
O27         O  0.18632241  0.24330729  0.53187410    -0.80600
O28         O  0.28226060  0.31986314  0.47238117    -0.80400
O29         O  0.32325275  0.28544901  0.47758365    -0.79100
Zn30       Zn  0.26671682  0.22875928  0.53901748     1.55700
O31         O  0.24708883  0.30762749  0.52951822    -0.80500
Cd32       Cd  0.28217227  0.28014333  0.45996253     1.59700
Cd33       Cd  0.21855576  0.21735667  0.45175768     1.59600
O34         O  0.27413092  0.27049827  0.38340158    -0.80500
O35         O  0.24999845  0.24725741  0.49898608    -1.91000
Cd36       Cd  0.23137903  0.26375929  0.54472493     1.59900
O37         O  0.22960108  0.22984295  0.37822988    -0.80400
O38         O  0.23975815  0.26035489  0.61945643    -0.79100
C39         C  0.22850625  0.16782047  0.48719815     0.83500
C40         C  0.33003163  0.26984487  0.50450154     0.83100
O41         O  0.26176161  0.23352014  0.61352283    -0.78000
C42         C  0.26604673  0.32612242  0.49979492     0.83900
O43         O  0.24777502  0.18536674  0.51946800    -0.78100
C44         C  0.25212325  0.25086778  0.35755444     0.84100
C45         C  0.16879696  0.22530205  0.49785712     0.84400
O46         O  0.17764582  0.21350591  0.46469730    -0.80500
O47         O  0.06399773  0.25321841  0.95921995    -0.78000
C48         C  0.99845308  0.24793380  0.85231538     0.83000
O49         O  0.04004056  0.32352219  0.02792495    -0.79200
O50         O  0.43998344  0.25023962  0.96851798    -0.80600
O51         O  0.46491113  0.17645435  0.01845874    -0.80400
O52         O  0.04225592  0.21767019  0.01452290    -0.79100
Zn53       Zn  0.03632678  0.26894248  0.94840311     1.55700
O54         O  0.44056449  0.18744713  0.96278560    -0.80500
Cd55       Cd  0.00410237  0.21871746  0.03079978     1.59700
Cd56       Cd  0.00307432  0.28163635  0.04029087     1.59600
O57         O  0.50327097  0.22642199  0.11064447    -0.80500
O58         O  0.00268230  0.25065831  0.99265596    -1.91000
Cd59       Cd  0.46631151  0.23229488  0.95141155     1.59900
O60         O  0.50063737  0.26781563  0.11631251    -0.80400
O61         O  0.47684457  0.23846614  0.87624544    -0.79100
C62         C  0.06004957  0.33176485  0.99465148     0.83500
C63         C  0.06396009  0.23345573  0.98636317     0.83100
O64         O  0.02312634  0.26111015  0.87568068    -0.78000
C65         C  0.44249536  0.16886372  0.99007242     0.83900
O66         O  0.06028190  0.31321827  0.96254328    -0.78100
C67         C  0.50182053  0.24660327  0.13675250     0.84100
C68         C  0.44094066  0.26873095  0.00203906     0.84400
O69         O  0.46258528  0.28210116  0.03292842    -0.80500
O70         O  0.47568520  0.23945207  0.61207374    -0.78000
C71         C  0.44050243  0.27148054  0.49807424     0.83000
O72         O  0.46059729  0.17619480  0.46570110    -0.79200
O73         O  0.00235571  0.26844283  0.37603651    -0.80600
O74         O  0.06059538  0.30985380  0.52828757    -0.80400
O75         O  0.02190208  0.25919552  0.61423321    -0.79100
Zn76       Zn  0.46478660  0.23365176  0.53857643     1.55700
O77         O  0.03787235  0.32037155  0.46897839    -0.80500
Cd78       Cd  0.03422813  0.26500927  0.53986613     1.59700
Cd79       Cd  0.49884094  0.21707883  0.45252402     1.59600
O80         O  0.06009247  0.24609820  0.52823759    -0.80500
O81         O  0.49898341  0.24971817  0.49583472    -1.91000
Cd82       Cd  0.49896936  0.28126762  0.45386786     1.59900
O83         O  0.03823752  0.21213658  0.46632612    -0.80400
O84         O  0.46193992  0.28544979  0.46828485    -0.79100
C85         C  0.43918000  0.17026194  0.49510998     0.83500
C86         C  0.49980637  0.25154576  0.63689760     0.83100
O87         O  0.43973022  0.25190028  0.52651728    -0.78000
C88         C  0.05953799  0.32838549  0.49940389     0.83900
O89         O  0.43913435  0.19024420  0.52378297    -0.78100
C90         C  0.05915281  0.22597577  0.49866269     0.84100
C91         C  0.00274449  0.24712510  0.35178913     0.84400
O92         O  0.00186666  0.22531598  0.37408332    -0.80500
O93         O  0.31095752  0.06201018  0.97477965    -0.78000
C94         C  0.24451627  0.99993279  0.86510653     0.83000
O95         O  0.21548889  0.04049926  0.03821036    -0.79200
O96         O  0.18879081  0.43944839  0.97311458    -0.80600
O97         O  0.28744694  0.46610330  0.02909733    -0.80400
O98         O  0.32250310  0.04040521  0.03421150    -0.79100
Zn99       Zn  0.26680758  0.03677947  0.96366630     1.55700
O100        O  0.25282646  0.44078683  0.97037508    -0.80500
Cd101      Cd  0.28191587  0.00259204  0.04677836     1.59700
Cd102      Cd  0.21919062  0.00305618  0.05093044     1.59600
O103        O  0.27286184  0.00228228  0.12266716    -0.80500
O104        O  0.24975921  0.00245702  0.00587812    -1.91000
Cd105      Cd  0.23312357  0.46573418  0.95813809     1.59900
O106        O  0.23163095  0.00463688  0.12545680    -0.80400
O107        O  0.23641898  0.47532637  0.88295875    -0.79100
C108        C  0.22960145  0.06183584  0.00845542     0.83500
C109        C  0.32986667  0.06143372  0.00389290     0.83100
O110        O  0.25843018  0.02454176  0.89015656    -0.78000
C111        C  0.27343739  0.44353822  0.99906105     0.83900
O112        O  0.24920808  0.06246182  0.97939412    -0.78100
C113        C  0.25188186  0.50300085  0.14222817     0.84100
C114        C  0.17074066  0.44222375  0.00166945     0.84400
O115        O  0.17892805  0.46537909  0.02995163    -0.80500
O116        O  0.24993223  0.43816184  0.53103167    -0.78000
C117        C  0.25029453  0.50367718  0.64255434     0.83000
O118        O  0.17786228  0.45932965  0.47291420    -0.79200
O119        O  0.24391373  0.06073960  0.52843515    -0.80600
O120        O  0.32048059  0.03786255  0.48145104    -0.80400
O121        O  0.28310715  0.45884250  0.47067568    -0.79100
Zn122      Zn  0.23396623  0.46533895  0.54600729     1.55700
O123        O  0.30807925  0.06371627  0.53421316    -0.80500
Cd124      Cd  0.28220514  0.49785104  0.46012333     1.59700
Cd125      Cd  0.21867603  0.49680820  0.45808574     1.59600
O126        O  0.27267809  0.99900882  0.38928523    -0.80500
O127        O  0.25075244  0.49873009  0.50193267    -1.91000
Cd128      Cd  0.26363397  0.03672348  0.54737274     1.59900
O129        O  0.22898132  0.99620269  0.38430423    -0.80400
O130        O  0.25757870  0.02815165  0.62330845    -0.79100
C131        C  0.17106991  0.43928458  0.50520092     0.83500
C132        C  0.26827522  0.43764593  0.50025735     0.83100
O133        O  0.23982437  0.47855644  0.61917795    -0.78000
C134        C  0.32717452  0.06130179  0.50812929     0.83900
O135        O  0.19056582  0.43996628  0.53408865    -0.78100
C136        C  0.25160967  0.99774549  0.36371175     0.84100
C137        C  0.22533536  0.05745838  0.49465223     0.84400
O138        O  0.21306431  0.03474291  0.46488009    -0.80500
C139        C  0.22277881  0.97998973  0.72582425    -0.05300
C140        C  0.24622308  0.00446933  0.70274857     0.00600
C141        C  0.26590189  0.53022551  0.72977337    -0.08000
C142        C  0.26462082  0.52734491  0.78220054    -0.05400
C143        C  0.24346605  0.00048312  0.80914813     0.00600
C144        C  0.22070203  0.97760678  0.77848331    -0.07900
C145        C  0.19391777  0.95107212  0.80051928     0.62500
H146        H  0.20586897  0.96251451  0.70197210     0.13200
H147        H  0.27895962  0.54650348  0.80601937     0.13200
C148        C  0.28584812  0.56085049  0.70884918     0.62700
F149        F  0.17272844  0.93425088  0.76408844    -0.22400
F150        F  0.18533180  0.45313693  0.83018800    -0.19800
F151        F  0.20219353  0.93268333  0.82265552    -0.19400
F152        F  0.26914151  0.56942244  0.68174672    -0.19500
F153        F  0.30863917  0.04585898  0.67820711    -0.19800
F154        F  0.30051688  0.58242858  0.74642555    -0.22500
C155        C  0.25858802  0.98229991  0.22503506    -0.05300
C156        C  0.25352817  0.00348241  0.20282595     0.00600
C157        C  0.24975660  0.02389125  0.23387526    -0.08000
C158        C  0.24941188  0.02115057  0.28627564    -0.05400
C159        C  0.25371348  0.99951799  0.30841442     0.00600
C160        C  0.25892668  0.98003375  0.27761136    -0.07900
C161        C  0.26411847  0.95657634  0.29999264     0.62500
H162        H  0.26195235  0.96724897  0.20068950     0.13200
H163        H  0.24588033  0.03609016  0.31064145     0.13200
C164        C  0.24721064  0.04913289  0.21213224     0.62700
F165        F  0.30072718  0.46887605  0.25893722    -0.22400
F166        F  0.27223321  0.45508811  0.32673268    -0.19800
F167        F  0.29057000  0.97025522  0.32639696    -0.19400
F168        F  0.19149925  0.49863480  0.17976959    -0.19500
F169        F  0.27000060  0.06454769  0.17914433    -0.19800
F170        F  0.24880899  0.06917767  0.24920605    -0.22500
C171        C  0.10122059  0.36981331  0.54709629    -0.05300
C172        C  0.08496800  0.35971104  0.50173288     0.00600
C173        C  0.09533345  0.37841065  0.45970046    -0.08000
C174        C  0.12277620  0.40507550  0.46356397    -0.05400
C175        C  0.14024529  0.41366997  0.50754828     0.00600
C176        C  0.12853217  0.39646247  0.55109293    -0.07900
C177        C  0.14456606  0.40549738  0.60175537     0.62500
H178        H  0.09284835  0.35591879  0.57945773     0.13200
H179        H  0.13157124  0.41868916  0.43099630     0.13200
C180        C  0.07872477  0.36964700  0.40989407     0.62700
F181        F  0.12614076  0.38961008  0.64043916    -0.22400
F182        F  0.15505074  0.43537245  0.61257746    -0.19800
F183        F  0.16776088  0.40010274  0.60101973    -0.19400
F184        F  0.05121854  0.36658156  0.41618179    -0.19500
F185        F  0.07581128  0.34310963  0.39216750    -0.19800
F186        F  0.09321002  0.39065128  0.37379950    -0.22500
C187        C  0.40026435  0.13055804  0.54449555    -0.05300
C188        C  0.41308095  0.13978865  0.49717718     0.00600
C189        C  0.39847508  0.12178462  0.45378756    -0.08000
C190        C  0.37116975  0.09541581  0.45957488    -0.05400
C191        C  0.35763815  0.08719825  0.50664266     0.00600
C192        C  0.37265386  0.10482833  0.55009390    -0.07900
C193        C  0.35983131  0.09666369  0.60230987     0.62500
H194        H  0.41166188  0.14452257  0.57730243     0.13200
H195        H  0.35938229  0.08169050  0.42679625     0.13200
C196        C  0.41064425  0.13107219  0.40144153     0.62700
F197        F  0.38023921  0.11377549  0.63959868    -0.22400
F198        F  0.35084476  0.06717685  0.61003500    -0.19800
F199        F  0.33612921  0.10110415  0.60721047    -0.19400
F200        F  0.43710637  0.13159866  0.39720526    -0.19500
F201        F  0.41500297  0.15905665  0.39266562    -0.19800
F202        F  0.39163618  0.11160701  0.36444710    -0.22500
C203        C  0.48074886  0.25575207  0.77436226    -0.05300
C204        C  0.99783802  0.24654986  0.79657433     0.00600
C205        C  0.01743830  0.24095799  0.76791848    -0.08000
C206        C  0.01602747  0.24114796  0.71521303    -0.05400
C207        C  0.49943094  0.25158171  0.69263940     0.00600
C208        C  0.47895144  0.25570602  0.72160258    -0.07900
C209        C  0.45569427  0.26070814  0.69746838     0.62500
H210        H  0.46524256  0.25871847  0.79710655     0.13200
H211        H  0.03128158  0.23757796  0.69282041     0.13200
C212        C  0.03906813  0.23373130  0.79241070     0.62700
F213        F  0.44132274  0.26874502  0.73275329    -0.22400
F214        F  0.43475410  0.23482122  0.67279590    -0.19800
F215        F  0.46868875  0.28332489  0.66359371    -0.19400
F216        F  0.02455866  0.21151159  0.82657549    -0.19500
F217        F  0.06132055  0.25886067  0.81684275    -0.19800
F218        F  0.05197391  0.22377995  0.75739967    -0.22500
C219        C  0.48053794  0.25199312  0.21661241    -0.05300
C220        C  0.50033283  0.24518973  0.19251805     0.00600
C221        C  0.98377738  0.22019607  0.21529232    -0.08000
C222        C  0.98459667  0.22130331  0.26836267    -0.05400
C223        C  0.00385603  0.24753372  0.29590577     0.00600
C224        C  0.47817528  0.25237815  0.26930475    -0.07900
C225        C  0.45508493  0.25808039  0.29289194     0.62500
H226        H  0.46670983  0.25692724  0.19356331     0.13200
H227        H  0.96975704  0.20175756  0.28888583     0.13200
C228        C  0.96130568  0.19176871  0.18735600     0.62700
F229        F  0.43668174  0.25923218  0.25706424    -0.22400
F230        F  0.46860413  0.28496709  0.31965764    -0.19800
F231        F  0.43781697  0.23534021  0.32470535    -0.19400
F232        F  0.97552122  0.17946610  0.16105207    -0.19500
F233        F  0.94507307  0.19795495  0.15413514    -0.19800
F234        F  0.94181480  0.17071191  0.21984207    -0.22500
C235        C  0.09591820  0.37841468  0.04128371    -0.05300
C236        C  0.08478120  0.36322775  0.99474035     0.00600
C237        C  0.09962759  0.37715992  0.95016312    -0.08000
C238        C  0.12722035  0.40339339  0.95433020    -0.05400
C239        C  0.13956920  0.41738925  0.00105557     0.00600
C240        C  0.12300591  0.40556036  0.04529168    -0.07900
C241        C  0.13441895  0.42053699  0.09670251     0.62500
H242        H  0.08400246  0.36801071  0.07497458     0.13200
H243        H  0.13963182  0.41293262  0.92054434     0.13200
C244        C  0.08738950  0.36457431  0.89784567     0.62700
F245        F  0.11556613  0.40438880  0.13473671    -0.22400
F246        F  0.13711691  0.44837303  0.09798184    -0.19800
F247        F  0.16157973  0.42343215  0.10647564    -0.19400
F248        F  0.05690763  0.34956804  0.89708285    -0.19500
F249        F  0.09702895  0.34542139  0.88207104    -0.19800
F250        F  0.09687672  0.38722286  0.86400816    -0.22500
C251        C  0.37264743  0.09635834  0.95408506    -0.05300
C252        C  0.36100764  0.08609501  0.00174528     0.00600
C253        C  0.37835020  0.10107075  0.04534140    -0.08000
C254        C  0.40601379  0.12693884  0.03943651    -0.05400
C255        C  0.41660516  0.13834191  0.99188825     0.00600
C256        C  0.40032115  0.12211352  0.94824195    -0.07900
C257        C  0.41218413  0.13152302  0.89569046     0.62500
H258        H  0.35942223  0.08436090  0.92115193     0.13200
H259        H  0.41892741  0.13949638  0.07228143     0.13200
C260        C  0.36719410  0.09098005  0.09796304     0.62700
F261        F  0.39545350  0.10965869  0.85963338    -0.22400
F262        F  0.44072454  0.13684047  0.89326551    -0.19800
F263        F  0.41189757  0.15700947  0.88378170    -0.19400
F264        F  0.36377958  0.06321275  0.10482492    -0.19500
F265        F  0.34044770  0.08962496  0.10465551    -0.19800
F266        F  0.38656698  0.11027249  0.13475181    -0.22500
C267        C  0.24466372  0.38429370  0.47948274    -0.05300
C268        C  0.27007915  0.41030967  0.49640038     0.00600
C269        C  0.29521252  0.40909623  0.51144073    -0.08000
C270        C  0.29371157  0.38125664  0.51030377    -0.05400
C271        C  0.26775324  0.35507694  0.49544228     0.00600
C272        C  0.24304731  0.35656826  0.47840668    -0.07900
C273        C  0.21519075  0.32902553  0.45861330     0.62500
H274        H  0.22576904  0.38584966  0.46784211     0.13200
H275        H  0.31235959  0.37953766  0.52281976     0.13200
C276        C  0.32274491  0.43681365  0.53084521     0.62700
F277        F  0.19550152  0.33614440  0.43795222    -0.22400
F278        F  0.20115665  0.30985000  0.49722092    -0.19800
F279        F  0.22230658  0.31456280  0.42157627    -0.19400
F280        F  0.31597324  0.44854916  0.57267740    -0.19500
F281        F  0.33377674  0.45775370  0.49397773    -0.19800
F282        F  0.34454852  0.43079834  0.54440686    -0.22500
C283        C  0.23685166  0.10217817  0.44987788    -0.05300
C284        C  0.22028832  0.08230462  0.48714834     0.00600
C285        C  0.20304988  0.08883009  0.52017078    -0.08000
C286        C  0.20464313  0.11652055  0.51704049    -0.05400
C287        C  0.22300191  0.13731614  0.48215961     0.00600
C288        C  0.23884765  0.12998374  0.44720693    -0.07900
C289        C  0.25922664  0.15226379  0.40956664     0.62500
H290        H  0.24984165  0.09655190  0.42507024     0.13200
H291        H  0.19269242  0.12271535  0.54328373     0.13200
C292        C  0.18358681  0.06677210  0.55873361     0.62700
F293        F  0.27207163  0.14040835  0.37823191    -0.21800
F294        F  0.28149260  0.17699660  0.43491425    -0.19800
F295        F  0.24353860  0.16096099  0.37993795    -0.19400
F296        F  0.20071970  0.06227777  0.59260355    -0.19500
F297        F  0.16414576  0.03994522  0.53466984    -0.19800
F298        F  0.16734338  0.07671308  0.58531430    -0.22500
C299        C  0.09433784  0.21447670  0.45487907    -0.05300
C300        C  0.08408040  0.22000100  0.50045178     0.00600
C301        C  0.09928995  0.22203439  0.54580894    -0.08000
C302        C  0.12594283  0.22189137  0.54306512    -0.05400
C303        C  0.13774572  0.21917345  0.49705670     0.00600
C304        C  0.12087386  0.21386516  0.45217061    -0.07900
C305        C  0.13110571  0.20881270  0.40124510     0.62500
H306        H  0.08209927  0.21216529  0.42076104     0.13200
H307        H  0.13840306  0.22498493  0.57729122     0.13200
C308        C  0.08774752  0.22434366  0.59724929     0.62700
F309        F  0.11159229  0.20484742  0.36290225    -0.22400
F310        F  0.13333434  0.18347422  0.40184024    -0.19800
F311        F  0.15817775  0.23310150  0.39022325    -0.19400
F312        F  0.05795716  0.20380728  0.59981023    -0.19500
F313        F  0.09237166  0.25270076  0.60595857    -0.19800
F314        F  0.10183900  0.21858711  0.63540704    -0.22500
C315        C  0.37710077  0.28399771  0.46206423    -0.05300
C316        C  0.36111647  0.27671526  0.50690130     0.00600
C317        C  0.37390799  0.27267717  0.55061637    -0.08000
C318        C  0.40017659  0.27195873  0.54600713    -0.05400
C319        C  0.41525207  0.27707023  0.50024472     0.00600
C320        C  0.40411672  0.28450327  0.45787220    -0.07900
C321        C  0.41943741  0.29113439  0.40754065     0.62500
H322        H  0.36734853  0.28763473  0.42926467     0.13200
H323        H  0.40902857  0.26722816  0.57891779     0.13200
C324        C  0.36096388  0.26912226  0.60284907     0.62700
F325        F  0.40397696  0.29628571  0.37107048    -0.22400
F326        F  0.42203220  0.26715351  0.39109316    -0.19800
F327        F  0.44706501  0.31629109  0.41239184    -0.19400
F328        F  0.34787245  0.23962808  0.61564454    -0.19500
F329        F  0.34047940  0.27826832  0.60638372    -0.19800
F330        F  0.38319809  0.28630221  0.63748663    -0.22500
C331        C  0.26075465  0.27493789  0.72098966    -0.05300
C332        C  0.25407979  0.24813665  0.69563620     0.00600
C333        C  0.24934139  0.22345020  0.72393049    -0.08000
C334        C  0.25112800  0.22656297  0.77676262    -0.05400
C335        C  0.25779768  0.25336456  0.80202351     0.00600
C336        C  0.26286398  0.27813278  0.77377599    -0.07900
C337        C  0.26952612  0.30752586  0.79894573     0.62500
H338        H  0.26451818  0.29361217  0.69883503     0.13200
H339        H  0.24735280  0.20792778  0.79905534     0.13200
C340        C  0.24154692  0.19365492  0.69902395     0.62700
F341        F  0.27021358  0.32729034  0.76458232    -0.22400
F342        F  0.29673902  0.32071890  0.82285713    -0.19800
F343        F  0.24806197  0.30271865  0.83373284    -0.19400
F344        F  0.26541474  0.19637782  0.67253617    -0.19500
F345        F  0.21773230  0.18421101  0.66661094    -0.19800
F346        F  0.23406615  0.17184258  0.73390726    -0.22500
C347        C  0.26303669  0.27804430  0.22302753    -0.05300
C348        C  0.24974604  0.25091038  0.19558120     0.00600
C349        C  0.23643540  0.22384145  0.22116858    -0.08000
C350        C  0.23821104  0.22494592  0.27398197    -0.05400
C351        C  0.25235403  0.25211446  0.30179139     0.00600
C352        C  0.26453805  0.27925857  0.27593378    -0.07900
C353        C  0.27836169  0.30938367  0.30355533     0.62500
H354        H  0.27267268  0.29841672  0.20240996     0.13200
H355        H  0.22850693  0.20440010  0.29408365     0.13200
C356        C  0.21932808  0.19401500  0.19290184     0.62700
F357        F  0.28453364  0.33212728  0.27129890    -0.22400
F358        F  0.30452176  0.31558383  0.32638451    -0.19800
F359        F  0.25926256  0.30931168  0.33953091    -0.19400
F360        F  0.23807677  0.18911335  0.16290662    -0.19500
F361        F  0.19776650  0.19386686  0.16304815    -0.19800
F362        F  0.20564483  0.17064241  0.22528273    -0.22500
C363        C  0.28119449  0.37704029  0.95812317    -0.05300
C364        C  0.28174642  0.36564210  0.00489167     0.00600
C365        C  0.28441321  0.38254805  0.04945723    -0.08000
C366        C  0.28371815  0.40912974  0.04567219    -0.05400
C367        C  0.27996951  0.41887864  0.99908496     0.00600
C368        C  0.28010570  0.40335688  0.95429465    -0.07900
C369        C  0.27841100  0.41389742  0.90248007     0.62500
H370        H  0.27952980  0.36403024  0.92440965     0.13200
H371        H  0.28418328  0.42146817  0.07952934     0.13200
C372        C  0.28770704  0.37251872  0.10081078     0.62700
F373        F  0.28600645  0.39994011  0.86518474    -0.22400
F374        F  0.29763226  0.44422515  0.90001245    -0.19800
F375        F  0.25000554  0.40760923  0.89261570    -0.19400
F376        F  0.30910056  0.36450770  0.09929491    -0.19500
F377        F  0.26125037  0.34845399  0.11488022    -0.19800
F378        F  0.29602892  0.39495316  0.13733813    -0.22500
C379        C  0.22029752  0.12810574  0.04479420    -0.05300
C380        C  0.22388274  0.14110754  0.99788000     0.00600
C381        C  0.22554709  0.12594263  0.95400912    -0.08000
C382        C  0.22558242  0.09915685  0.95923934    -0.05400
C383        C  0.22377211  0.08696373  0.00648085     0.00600
C384        C  0.21982117  0.10100936  0.04996772    -0.07900
C385        C  0.21652733  0.08841536  0.10184105     0.62500
H386        H  0.21882074  0.13999037  0.07777788     0.13200
H387        H  0.22796566  0.08786602  0.92625902     0.13200
C388        C  0.22879066  0.13865010  0.90217669     0.62700
F389        F  0.19107219  0.06088869  0.10312237    -0.22400
F390        F  0.21464731  0.10657919  0.13900079    -0.19800
F391        F  0.24060111  0.08551871  0.11290354    -0.19400
F392        F  0.25341526  0.16683994  0.90135562    -0.19500
F393        F  0.20401241  0.14019665  0.89050914    -0.19800
F394        F  0.23190023  0.12119947  0.86513503    -0.22500
C395        C  0.10755067  0.23752031  0.94193965    -0.05300
C396        C  0.09034578  0.22972993  0.98570062     0.00600
C397        C  0.10031288  0.22143210  0.02861893    -0.08000
C398        C  0.12736912  0.22208224  0.02630196    -0.05400
C399        C  0.14480782  0.23081286  0.98332926     0.00600
C400        C  0.13479586  0.23842978  0.94008187    -0.07900
C401        C  0.15349596  0.24895216  0.89322669     0.62500
H402        H  0.09982723  0.24371414  0.90937238     0.13200
H403        H  0.13573822  0.21657948  0.05888104     0.13200
C404        C  0.08357921  0.21336374  0.07775862     0.62700
F405        F  0.14052974  0.25709083  0.85658541    -0.22400
F406        F  0.15736208  0.22638035  0.87311888    -0.19800
F407        F  0.18073768  0.27342621  0.90535309    -0.19400
F408        F  0.05670034  0.18747730  0.07072538    -0.19500
F409        F  0.07924330  0.23628117  0.09441378    -0.19800
F410        F  0.09872058  0.20856460  0.11530586    -0.22500
C411        C  0.37481318  0.27424984  0.04751948    -0.05300
C412        C  0.36247687  0.27553033  0.00154083     0.00600
C413        C  0.37742783  0.27695834  0.95622673    -0.08000
C414        C  0.40386241  0.27634284  0.95873441    -0.05400
C415        C  0.41569717  0.27407675  0.00450661     0.00600
C416        C  0.40117534  0.27341944  0.04996478    -0.07900
C417        C  0.41239097  0.27018476  0.10057657     0.62500
H418        H  0.36306039  0.27307154  0.08168407     0.13200
H419        H  0.41522524  0.27677735  0.92445289     0.13200
C420        C  0.36484415  0.27737700  0.90510061     0.62700
F421        F  0.39360378  0.26760697  0.13922265    -0.22400
F422        F  0.43961946  0.29492041  0.11148614    -0.19800
F423        F  0.41484955  0.24495146  0.09942516    -0.19400
F424        F  0.36410329  0.30338994  0.90105713    -0.19500
F425        F  0.33663122  0.25317267  0.89926337    -0.19800
F426        F  0.38163036  0.27598711  0.86603809    -0.22500
O427        O  0.31361472  0.75567451  0.03019429    -0.78000
C428        C  0.24905777  0.75083619  0.14073850     0.83000
O429        O  0.21611938  0.67992241  0.96816815    -0.79200
O430        O  0.18977749  0.75414271  0.02858485    -0.80600
O431        O  0.28611209  0.82561858  0.97174762    -0.80400
O432        O  0.32371777  0.78842600  0.97079778    -0.79100
Zn433      Zn  0.26956280  0.73622493  0.04201946     1.55700
O434        O  0.25462343  0.81693452  0.03416774    -0.80500
Cd435      Cd  0.28279285  0.78447754  0.95790177     1.59700
Cd436      Cd  0.21923576  0.72094351  0.95654909     1.59600
O437        O  0.27209401  0.77333388  0.88244484    -0.80500
O438        O  0.25158782  0.75300546  0.00033285    -1.91000
Cd439      Cd  0.23415372  0.77164460  0.04456160     1.59900
O440        O  0.22938576  0.73021426  0.88127755    -0.80400
O441        O  0.23770612  0.76429263  0.11931037    -0.79100
C442        C  0.23150658  0.67332655  0.99619107     0.83500
C443        C  0.33183496  0.77508848  0.00050607     0.83100
O444        O  0.26205033  0.73965130  0.11580066    -0.78000
C445        C  0.27371682  0.83448990  0.00350444     0.83900
O446        O  0.25188224  0.69263967  0.02507898    -0.78100
C447        C  0.25061196  0.75161668  0.85871642     0.84100
C448        C  0.17125273  0.73378736  0.99845279     0.84400
O449        O  0.17866368  0.71869984  0.96945015    -0.80500
O450        O  0.30758733  0.74698771  0.52517112    -0.78000
C451        C  0.24816150  0.74629966  0.64067954     0.83000
O452        O  0.21125999  0.67366765  0.46239157    -0.79200
O453        O  0.18372279  0.74354513  0.53204285    -0.80600
O454        O  0.27891613  0.81994040  0.47356079    -0.80400
O455        O  0.31979589  0.78330173  0.47166396    -0.79100
Zn456      Zn  0.26418751  0.72865720  0.53959131     1.55700
O457        O  0.24448596  0.80690094  0.53204833    -0.80500
Cd458      Cd  0.27839418  0.77956614  0.45919397     1.59700
Cd459      Cd  0.21456316  0.71505147  0.45348064     1.59600
O460        O  0.26800231  0.76932215  0.38329616    -0.80500
O461        O  0.24671252  0.74627765  0.49902942    -1.91000
Cd462      Cd  0.22837869  0.76288335  0.54519244     1.59900
O463        O  0.22524089  0.72628940  0.37910780    -0.80400
O464        O  0.23545641  0.75858163  0.61977885    -0.79100
C465        C  0.22554988  0.66617907  0.49137139     0.83500
C466        C  0.32675656  0.76786162  0.49884513     0.83100
O467        O  0.25984365  0.73414501  0.61455069    -0.78000
C468        C  0.26289582  0.82588011  0.50238598     0.83900
O469        O  0.24518592  0.68485546  0.52215933    -0.78100
C470        C  0.24666107  0.74832004  0.35806308     0.84100
C471        C  0.16572038  0.72534838  0.49885740     0.84400
O472        O  0.17371761  0.71239580  0.46621297    -0.80500
O473        O  0.06070526  0.75076094  0.97699840    -0.78000
C474        C  0.00037072  0.75157535  0.86593271     0.83000
O475        O  0.03636275  0.82415929  0.03869684    -0.79200
O476        O  0.44146521  0.75894659  0.96635872    -0.80600
O477        O  0.46178478  0.68329040  0.01794416    -0.80400
O478        O  0.03722865  0.71486525  0.03142526    -0.79100
Zn479      Zn  0.03484672  0.76833143  0.96490170     1.55700
O480        O  0.43950110  0.69458771  0.95902691    -0.80500
Cd481      Cd  0.99963802  0.71827186  0.04532703     1.59700
Cd482      Cd  0.99951666  0.78213749  0.05190873     1.59600
O483        O  0.50283739  0.73447334  0.10881769    -0.80500
O484        O  0.99989420  0.75081069  0.00603181    -1.91000
Cd485      Cd  0.46647807  0.73967199  0.94877729     1.59900
O486        O  0.50631921  0.77889442  0.11371121    -0.80400
O487        O  0.47746207  0.74589031  0.87371519    -0.79100
C488        C  0.05785220  0.83147802  0.00869065     0.83500
C489        C  0.05947202  0.73037816  0.00391313     0.83100
O490        O  0.02419278  0.76281126  0.89150030    -0.78000
C491        C  0.44024813  0.67577771  0.98749831     0.83900
O492        O  0.05936977  0.81221002  0.98019872    -0.78100
C493        C  0.50567215  0.75686311  0.13460923     0.84100
C494        C  0.44288512  0.77754805  0.00011966     0.84400
O495        O  0.46467621  0.79062934  0.03093251    -0.80500
O496        O  0.47470867  0.74043877  0.60933650    -0.78000
C497        C  0.43763939  0.76873567  0.49100927     0.83000
O498        O  0.46200708  0.67716504  0.46049764    -0.79200
O499        O  0.99877632  0.77254500  0.39230763    -0.80600
O500        O  0.06039496  0.81485226  0.53621444    -0.80400
O501        O  0.02511954  0.76646272  0.62663924    -0.79100
Zn502      Zn  0.46376281  0.73288591  0.53520090     1.55700
O503        O  0.03420554  0.82408373  0.48149988    -0.80500
Cd504      Cd  0.03496243  0.77030096  0.55116439     1.59700
Cd505      Cd  0.50027855  0.71846209  0.45100113     1.59600
O506        O  0.06048801  0.75093736  0.53710693    -0.80500
O507        O  0.49853102  0.75034698  0.49332027    -1.91000
Cd508      Cd  0.49810780  0.78150074  0.45061982     1.59900
O509        O  0.03630444  0.71618401  0.47717368    -0.80400
O510        O  0.45923662  0.78312286  0.46159229    -0.79100
C511        C  0.44072243  0.66957712  0.49094065     0.83500
C512        C  0.49894637  0.75463749  0.63388047     0.83100
O513        O  0.43739368  0.74973913  0.52044847    -0.78000
C514        C  0.05731804  0.83256584  0.50825371     0.83900
O515        O  0.43979562  0.68857628  0.52116164    -0.78100
C516        C  0.05828086  0.73024716  0.50738187     0.84100
C517        C  0.99936490  0.75173949  0.36705987     0.84400
O518        O  0.99940504  0.73030407  0.38905840    -0.80500
O519        O  0.31177110  0.56243939  0.96940197    -0.78000
C520        C  0.24687625  0.49989157  0.86095284     0.83000
O521        O  0.21757373  0.54153204  0.03378905    -0.79200
O522        O  0.18652523  0.93910882  0.98009875    -0.80600
O523        O  0.28542019  0.96523294  0.02959029    -0.80400
O524        O  0.32457388  0.54232095  0.02945657    -0.79100
Zn525      Zn  0.26800038  0.53694879  0.95894870     1.55700
O526        O  0.25047029  0.94065544  0.97115606    -0.80500
Cd527      Cd  0.28399145  0.50405597  0.04340441     1.59700
Cd528      Cd  0.22018930  0.50316436  0.04411218     1.59600
O529        O  0.27384212  0.50434028  0.11904104    -0.80500
O530        O  0.25160370  0.50285390  0.00126244    -1.91000
Cd531      Cd  0.23038687  0.96554499  0.96218583     1.59900
O532        O  0.23047462  0.50214014  0.11850306    -0.80400
O533        O  0.23242363  0.97525597  0.88708471    -0.79100
C534        C  0.23188247  0.56294636  0.00428179     0.83500
C535        C  0.33124223  0.56295385  0.99843761     0.83100
O536        O  0.25928049  0.52454747  0.88599940    -0.78000
C537        C  0.27136717  0.94315392  0.99875819     0.83900
O538        O  0.25108695  0.56309139  0.97484874    -0.78100
C539        C  0.25271589  0.00372028  0.14723460     0.84100
C540        C  0.16916513  0.94144040  0.01104809     0.84400
O541        O  0.17794202  0.96443636  0.04005602    -0.80500
O542        O  0.24573867  0.93868617  0.53357680    -0.78000
C543        C  0.24700750  0.00397838  0.64668167     0.83000
O544        O  0.17592474  0.96039697  0.47084018    -0.79200
O545        O  0.25050408  0.56178667  0.52563193    -0.80600
O546        O  0.32358796  0.53508957  0.47465949    -0.80400
O547        O  0.28207738  0.96062499  0.47881576    -0.79100
Zn548      Zn  0.23016514  0.96619751  0.54911048     1.55700
O549        O  0.31405111  0.56166206  0.53094767    -0.80500
Cd550      Cd  0.28034375  0.99914196  0.46584137     1.59700
Cd551      Cd  0.21689761  0.99722162  0.45785908     1.59600
O552        O  0.27298847  0.49858068  0.38501833    -0.80500
O553        O  0.24768205  0.99946957  0.50514881    -1.91000
Cd554      Cd  0.26906634  0.53644808  0.54320278     1.59900
O555        O  0.22904028  0.49502575  0.38326944    -0.80400
O556        O  0.26184133  0.52769498  0.61866939    -0.79100
C557        C  0.16809646  0.94145869  0.50528655     0.83500
C558        C  0.26550287  0.93858407  0.50580860     0.83100
O559        O  0.23654487  0.97899076  0.62285027    -0.78000
C560        C  0.33200837  0.55823649  0.50311144     0.83900
O561        O  0.18664652  0.94218677  0.53662357    -0.78100
C562        C  0.25133257  0.49678934  0.36069988     0.84100
C563        C  0.22967891  0.55824650  0.49666229     0.84400
O564        O  0.21529013  0.53491319  0.46850939    -0.80500
C565        C  0.22818151  0.47779385  0.72155040    -0.05300
C566        C  0.24844435  0.50440327  0.69863010     0.00600
C567        C  0.26827924  0.02787540  0.73353973    -0.08000
C568        C  0.26644036  0.02529908  0.78603716    -0.05400
C569        C  0.24547554  0.50036167  0.80502612     0.00600
C570        C  0.22564624  0.47545173  0.77409816    -0.07900
C571        C  0.20125036  0.44674168  0.79557686     0.62500
H572        H  0.21397226  0.45853874  0.69776636     0.13200
H573        H  0.28350771  0.04273132  0.80968320     0.13200
C574        C  0.29441438  0.05499041  0.71166437     0.62700
F575        F  0.18165224  0.42789393  0.75862632    -0.22400
F576        F  0.18106981  0.96082109  0.83595497    -0.19800
F577        F  0.21318027  0.43166223  0.81846008    -0.19400
F578        F  0.28493074  0.07179530  0.68735166    -0.19500
F579        F  0.30685614  0.56020021  0.67833725    -0.19800
F580        F  0.31472251  0.07320544  0.74830493    -0.22500
C581        C  0.26859912  0.49195506  0.22161833    -0.05300
C582        C  0.25110635  0.50165581  0.19829952     0.00600
C583        C  0.23373475  0.50962365  0.22895807    -0.08000
C584        C  0.23465120  0.50744658  0.28135735    -0.05400
C585        C  0.25215560  0.49782053  0.30467514     0.00600
C586        C  0.26953926  0.48983361  0.27414914    -0.07900
C587        C  0.28878647  0.47870571  0.29600777     0.62500
H588        H  0.28165256  0.48582359  0.19808982     0.13200
H589        H  0.22164273  0.51364038  0.30487445     0.13200
C590        C  0.21469885  0.52109518  0.20751144     0.62700
F591        F  0.26535530  0.93783002  0.26325676    -0.22400
F592        F  0.24148879  0.93934428  0.33213571    -0.19800
F593        F  0.31194186  0.50149714  0.32332658    -0.19400
F594        F  0.22053406  0.03787611  0.18704577    -0.19500
F595        F  0.23156084  0.54488006  0.17744387    -0.19800
F596        F  0.20281820  0.53088498  0.24475342    -0.22500
C597        C  0.09610462  0.87779689  0.55210421    -0.05300
C598        C  0.08210303  0.86358343  0.50644567     0.00600
C599        C  0.09433750  0.87762321  0.46056402    -0.08000
C600        C  0.12183852  0.90415668  0.46203366    -0.05400
C601        C  0.13707721  0.91694444  0.50757605     0.00600
C602        C  0.12318114  0.90465761  0.55364539    -0.07900
C603        C  0.13659048  0.91958330  0.60437538     0.62500
H604        H  0.08610825  0.86706056  0.58683771     0.13200
H605        H  0.13237218  0.91430458  0.42726704     0.13200
C606        C  0.07924127  0.86408154  0.41019340     0.62700
F607        F  0.11604951  0.90822277  0.64229080    -0.22400
F608        F  0.14687935  0.94980874  0.60297598    -0.19800
F609        F  0.15954027  0.91506663  0.61651479    -0.19400
F610        F  0.05241882  0.86294968  0.40853162    -0.19500
F611        F  0.07480944  0.83564114  0.40368020    -0.19800
F612        F  0.09577265  0.88065475  0.37033435    -0.22500
C613        C  0.40422998  0.62741767  0.53996484    -0.05300
C614        C  0.41609571  0.63810812  0.49258412     0.00600
C615        C  0.40243426  0.61964532  0.44904013    -0.08000
C616        C  0.37606790  0.59221945  0.45458306    -0.05400
C617        C  0.36314368  0.58282132  0.50179548     0.00600
C618        C  0.37855050  0.59970825  0.54548418    -0.07900
C619        C  0.36821310  0.58973736  0.59838411     0.62500
H620        H  0.41502388  0.64116989  0.57332934     0.13200
H621        H  0.36425506  0.57878945  0.42157336     0.13200
C622        C  0.41419951  0.62961525  0.39674041     0.62700
F623        F  0.39217877  0.59759181  0.62972371    -0.22400
F624        F  0.35006791  0.55919368  0.60009414    -0.19800
F625        F  0.35327225  0.60354209  0.61639488    -0.19400
F626        F  0.44203034  0.63321588  0.39266451    -0.19500
F627        F  0.41546738  0.65624947  0.38793717    -0.19800
F628        F  0.39646652  0.60909072  0.35970278    -0.22500
C629        C  0.48051248  0.75977033  0.77138208    -0.05300
C630        C  0.00167904  0.75289694  0.81049518     0.00600
C631        C  0.02050287  0.74630621  0.78148042    -0.08000
C632        C  0.01936489  0.74722718  0.72880296    -0.05400
C633        C  0.49912648  0.75569213  0.68964199     0.00600
C634        C  0.47837438  0.75925748  0.71859634    -0.07900
C635        C  0.45470249  0.76353170  0.69430083     0.62500
H636        H  0.46459140  0.76211097  0.79398193     0.13200
H637        H  0.03310944  0.74173931  0.70580018     0.13200
C638        C  0.04119315  0.73766976  0.80553652     0.62700
F639        F  0.43984167  0.77100037  0.72948755    -0.22400
F640        F  0.43424575  0.73750533  0.66938254    -0.19800
F641        F  0.46739039  0.78624923  0.66055476    -0.19400
F642        F  0.02565290  0.71431119  0.83725275    -0.19500
F643        F  0.06311064  0.76176447  0.83263253    -0.19800
F644        F  0.05470985  0.72875276  0.76996866    -0.22500
C645        C  0.49265541  0.72827572  0.21245105    -0.05300
C646        C  0.50718451  0.75629284  0.19051398     0.00600
C647        C  0.00423395  0.72823798  0.23193705    -0.08000
C648        C  0.00380754  0.73037149  0.28481494    -0.05400
C649        C  0.00014605  0.75224876  0.31068039     0.00600
C650        C  0.49190229  0.72507147  0.26482280    -0.07900
C651        C  0.47604186  0.69398831  0.28553874     0.62500
H652        H  0.48144544  0.70862593  0.18798934     0.13200
H653        H  0.00616410  0.71448836  0.30656144     0.13200
C654        C  0.00774650  0.70334652  0.20780841     0.62700
F655        F  0.46249319  0.67213614  0.24798137    -0.22400
F656        F  0.45455162  0.69136178  0.31848468    -0.19800
F657        F  0.49598715  0.68872106  0.31019353    -0.19400
F658        F  0.03234055  0.71531936  0.17775918    -0.19500
F659        F  0.98288225  0.68433120  0.17942277    -0.19800
F660        F  0.01140375  0.68644514  0.24311027    -0.22500
C661        C  0.09429310  0.87838691  0.05371430    -0.05300
C662        C  0.08260112  0.86279578  0.00771070     0.00600
C663        C  0.09744824  0.87574266  0.96262192    -0.08000
C664        C  0.12526420  0.90168779  0.96578939    -0.05400
C665        C  0.13804320  0.91637023  0.01193731     0.00600
C666        C  0.12179201  0.90517841  0.05674560    -0.07900
C667        C  0.13397530  0.92029063  0.10779417     0.62500
H668        H  0.08249320  0.86846202  0.08775207     0.13200
H669        H  0.13735144  0.91057450  0.93145730     0.13200
C670        C  0.08518992  0.86262177  0.91049768     0.62700
F671        F  0.11547651  0.90450866  0.14646132    -0.22400
F672        F  0.13718308  0.94833912  0.10921118    -0.19800
F673        F  0.16101899  0.92267978  0.11648874    -0.19400
F674        F  0.05487312  0.84444426  0.91020007    -0.19500
F675        F  0.09790131  0.84646752  0.89303762    -0.19800
F676        F  0.09173018  0.88521115  0.87768054    -0.22500
C677        C  0.37092301  0.60255630  0.94899883    -0.05300
C678        C  0.36188887  0.58892045  0.99565950     0.00600
C679        C  0.38072642  0.60246046  0.03832224    -0.08000
C680        C  0.40688210  0.63004942  0.03306120    -0.05400
C681        C  0.41461892  0.64476635  0.98726133     0.00600
C682        C  0.39687359  0.63021533  0.94383405    -0.07900
C683        C  0.40471463  0.64365160  0.89213969     0.62500
H684        H  0.35669480  0.59183724  0.91648139     0.13200
H685        H  0.42086713  0.64114483  0.06566563     0.13200
C686        C  0.37283096  0.58889127  0.08980147     0.62700
F687        F  0.38811224  0.62303508  0.85436180    -0.22400
F688        F  0.43408068  0.65372020  0.88239339    -0.19800
F689        F  0.39942382  0.66704606  0.89000947    -0.19400
F690        F  0.37140057  0.56162976  0.08808620    -0.19500
F691        F  0.34593532  0.58522057  0.10431223    -0.19800
F692        F  0.39352867  0.60668687  0.12625868    -0.22500
C693        C  0.23979343  0.88411866  0.49735236    -0.05300
C694        C  0.26685830  0.91076238  0.50241070     0.00600
C695        C  0.29322851  0.90968189  0.50534978    -0.08000
C696        C  0.29135276  0.88157596  0.50377057    -0.05400
C697        C  0.26404709  0.85492377  0.50032925     0.00600
C698        C  0.23776575  0.85621053  0.49610575    -0.07900
C699        C  0.20748174  0.82835162  0.48963972     0.62500
H700        H  0.21988455  0.88536325  0.49475272     0.13200
H701        H  0.31114859  0.88016473  0.50662375     0.13200
C702        C  0.32292625  0.93787939  0.51231639     0.62700
F703        F  0.18606955  0.83510706  0.47686000    -0.22400
F704        F  0.19915788  0.81332178  0.53410690    -0.19800
F705        F  0.20808272  0.80986401  0.45175207    -0.19400
F706        F  0.32227329  0.95430513  0.55367282    -0.19500
F707        F  0.32947849  0.95471099  0.46995734    -0.19800
F708        F  0.34530540  0.93173172  0.52002271    -0.22500
C709        C  0.22244343  0.59416061  0.44835022    -0.05300
C710        C  0.22285959  0.58256680  0.49508168     0.00600
C711        C  0.21884301  0.59572561  0.53953928    -0.08000
C712        C  0.21804615  0.62218059  0.53617209    -0.05400
C713        C  0.22013744  0.63528109  0.48988634     0.00600
C714        C  0.22096638  0.62037321  0.44483720    -0.07900
C715        C  0.22164523  0.63270243  0.39357526     0.62500
H716        H  0.22473278  0.58328959  0.41468403     0.13200
H717        H  0.21680684  0.63349300  0.57017835     0.13200
C718        C  0.21521253  0.58184489  0.59034961     0.62700
F719        F  0.22366769  0.61535624  0.35503100    -0.21800
F720        F  0.24566686  0.66116767  0.39081952    -0.19800
F721        F  0.19604247  0.63345933  0.38595992    -0.19400
F722        F  0.24185136  0.58576840  0.60685318    -0.19500
F723        F  0.19472005  0.55173298  0.58644142    -0.19800
F724        F  0.20543026  0.59457080  0.62624524    -0.22500
C725        C  0.09357482  0.72085425  0.45914610    -0.05300
C726        C  0.08283616  0.72370181  0.50621204     0.00600
C727        C  0.09712183  0.72246247  0.55048491    -0.08000
C728        C  0.12296898  0.72083838  0.54586238    -0.05400
C729        C  0.13513338  0.72042570  0.49888555     0.00600
C730        C  0.11969584  0.71954540  0.45451053    -0.07900
C731        C  0.13150134  0.71908968  0.40250764     0.62500
H732        H  0.08218137  0.72139718  0.42573725     0.13200
H733        H  0.13468694  0.72111288  0.57945939     0.13200
C734        C  0.08529276  0.72276046  0.60260532     0.62700
F735        F  0.11376631  0.71976057  0.36484608    -0.22400
F736        F  0.13277333  0.69337563  0.39504455    -0.19800
F737        F  0.15937815  0.74364527  0.39790829    -0.19400
F738        F  0.05550669  0.70203788  0.60383939    -0.19500
F739        F  0.08970069  0.75071662  0.61484090    -0.19800
F740        F  0.09925011  0.71570550  0.63912992    -0.22500
C741        C  0.37231250  0.77808291  0.45288914    -0.05300
C742        C  0.35748855  0.77316629  0.49883649     0.00600
C743        C  0.37131697  0.77097493  0.54292186    -0.08000
C744        C  0.39790301  0.77074438  0.53854934    -0.05400
C745        C  0.41183284  0.77358327  0.49212287     0.00600
C746        C  0.39933375  0.77840970  0.44861740    -0.07900
C747        C  0.41355287  0.78252692  0.39746777     0.62500
H748        H  0.36180662  0.78029456  0.41970902     0.13200
H749        H  0.40770979  0.76758986  0.57181147     0.13200
C750        C  0.35810820  0.76834954  0.59473115     0.62700
F751        F  0.39677333  0.78492208  0.35994483    -0.22400
F752        F  0.41687943  0.75840914  0.38501154    -0.19800
F753        F  0.44081530  0.80830331  0.39858113    -0.19400
F754        F  0.33635964  0.73917807  0.60173494    -0.19500
F755        F  0.34621082  0.78667275  0.59986284    -0.19800
F756        F  0.37926294  0.77674594  0.63230073    -0.22500
C757        C  0.25157767  0.77195643  0.72241288    -0.05300
C758        C  0.24957116  0.74696929  0.69665128     0.00600
C759        C  0.24764448  0.72329474  0.72481168    -0.08000
C760        C  0.24790424  0.72572374  0.77774921    -0.05400
C761        C  0.25042431  0.75093290  0.80311176     0.00600
C762        C  0.25208074  0.77442143  0.77523295    -0.07900
C763        C  0.25338341  0.80152474  0.80105238     0.62500
H764        H  0.25297320  0.78984038  0.70064851     0.13200
H765        H  0.24653345  0.70801751  0.80002781     0.13200
C766        C  0.24468307  0.69529471  0.69965284     0.62700
F767        F  0.25131340  0.81994647  0.76692658    -0.22400
F768        F  0.27976504  0.81795219  0.82715357    -0.19800
F769        F  0.23027933  0.79255191  0.83416578    -0.19400
F770        F  0.27042023  0.70211780  0.67494289    -0.19500
F771        F  0.22134466  0.68310424  0.66563844    -0.19800
F772        F  0.23950858  0.67386325  0.73415411    -0.22500
C773        C  0.25376465  0.77481220  0.22419368    -0.05300
C774        C  0.24763028  0.74901295  0.19618483     0.00600
C775        C  0.23925197  0.72232724  0.22142658    -0.08000
C776        C  0.23929714  0.72310777  0.27440354    -0.05400
C777        C  0.24676752  0.74933404  0.30245138     0.00600
C778        C  0.25311553  0.77541771  0.27700514    -0.07900
C779        C  0.25798240  0.80344259  0.30507212     0.62500
H780        H  0.25937653  0.79476108  0.20417114     0.13200
H781        H  0.23368952  0.70317811  0.29447570     0.13200
C782        C  0.22899672  0.69291163  0.19284546     0.62700
F783        F  0.25870475  0.82409605  0.27266905    -0.22400
F784        F  0.28449628  0.81662923  0.33119625    -0.19800
F785        F  0.23526568  0.79638319  0.33836100    -0.19400
F786        F  0.25225002  0.69362691  0.16724728    -0.19500
F787        F  0.20687882  0.68770640  0.15893087    -0.19800
F788        F  0.21787922  0.66921415  0.22474800    -0.22500
C789        C  0.27736164  0.87601949  0.95568474    -0.05300
C790        C  0.27974104  0.86546063  0.00226760     0.00600
C791        C  0.28492790  0.88345519  0.04638992    -0.08000
C792        C  0.28395792  0.90985826  0.04306841    -0.05400
C793        C  0.27807954  0.91866319  0.99722744     0.00600
C794        C  0.27657496  0.90251223  0.95222081    -0.07900
C795        C  0.27401669  0.91287345  0.90069849     0.62500
H796        H  0.27423656  0.86236712  0.92210688     0.13200
H797        H  0.28601121  0.92285276  0.07699378     0.13200
C798        C  0.29140671  0.87488302  0.09674302     0.62700
F799        F  0.27989897  0.89795163  0.86260821    -0.22400
F800        F  0.29404555  0.94295599  0.89711482    -0.19800
F801        F  0.24580953  0.90769563  0.89296615    -0.19400
F802        F  0.31255652  0.86670660  0.09105708    -0.19500
F803        F  0.26602797  0.85138486  0.11545006    -0.19800
F804        F  0.30200418  0.89835374  0.13175932    -0.22500
C805        C  0.22046920  0.62814267  0.04114114    -0.05300
C806        C  0.22644953  0.64268356  0.99539719     0.00600
C807        C  0.23155917  0.62964268  0.95202536    -0.08000
C808        C  0.23133242  0.60268194  0.95641694    -0.05400
C809        C  0.22672689  0.58862152  0.00269846     0.00600
C810        C  0.22040052  0.60120404  0.04575359    -0.07900
C811        C  0.21540749  0.58755233  0.09698249     0.62500
H812        H  0.21687272  0.63877622  0.07383417     0.13200
H813        H  0.23576142  0.59278932  0.92362856     0.13200
C814        C  0.23889514  0.64497711  0.90200195     0.62700
F815        F  0.19062213  0.55945428  0.09532768    -0.22400
F816        F  0.21115930  0.60434751  0.13382659    -0.19800
F817        F  0.23975593  0.58575049  0.11073152    -0.19400
F818        F  0.26360725  0.67301739  0.90754534    -0.19500
F819        F  0.21543345  0.64759160  0.88554163    -0.19800
F820        F  0.24463333  0.62923348  0.86524131    -0.22500
C821        C  0.09766914  0.72526226  0.95691445    -0.05300
C822        C  0.08531649  0.72587401  0.00358335     0.00600
C823        C  0.10019745  0.72645297  0.04832826    -0.08000
C824        C  0.12757008  0.72770999  0.04465702    -0.05400
C825        C  0.14043317  0.72810042  0.99803223     0.00600
C826        C  0.12492879  0.72620564  0.95319482    -0.07900
C827        C  0.13778022  0.72697015  0.90166837     0.62500
H828        H  0.08607720  0.72495810  0.92313766     0.13200
H829        H  0.13957767  0.72902488  0.07853778     0.13200
C830        C  0.08787614  0.72695001  0.09980486     0.62700
F831        F  0.11978721  0.72649511  0.86335504    -0.22400
F832        F  0.14109793  0.70244031  0.89426970    -0.19800
F833        F  0.16490301  0.75268253  0.89813666    -0.19400
F834        F  0.06162683  0.70061775  0.10572259    -0.19500
F835        F  0.08303976  0.75067622  0.10444660    -0.19800
F836        F  0.10688259  0.72982438  0.13828636    -0.22500
C837        C  0.37539990  0.78008344  0.04606453    -0.05300
C838        C  0.36285801  0.78129240  0.00019298     0.00600
C839        C  0.37901243  0.78536907  0.95522960    -0.08000
C840        C  0.40601131  0.78583380  0.95767038    -0.05400
C841        C  0.41770408  0.78298330  0.00312626     0.00600
C842        C  0.40273444  0.78117353  0.04849987    -0.07900
C843        C  0.41480234  0.77905865  0.09900476     0.62500
H844        H  0.36314230  0.77752724  0.08015988     0.13200
H845        H  0.41797650  0.78756751  0.92351896     0.13200
C846        C  0.36747967  0.78790578  0.90440818     0.62700
F847        F  0.39597936  0.77587686  0.13793250    -0.22400
F848        F  0.44148792  0.80471551  0.10901393    -0.19800
F849        F  0.41876316  0.75473543  0.09829682    -0.19400
F850        F  0.36551409  0.81340008  0.90444287    -0.19500
F851        F  0.34000538  0.76324439  0.89452807    -0.19800
F852        F  0.38585342  0.78965788  0.86558479    -0.22500
O853        O  0.81570979  0.25480518  0.03125849    -0.78000
C854        C  0.75214135  0.25193283  0.14117096     0.83000
O855        O  0.71938361  0.17985335  0.97013577    -0.79200
O856        O  0.69123930  0.25164786  0.02389370    -0.80600
O857        O  0.78909891  0.32646938  0.97732739    -0.80400
O858        O  0.82764137  0.28931761  0.97460257    -0.79100
Zn859      Zn  0.77237782  0.23683594  0.04324614     1.55700
O860        O  0.75483737  0.31481771  0.03586240    -0.80500
Cd861      Cd  0.78670190  0.28569285  0.96027999     1.59700
Cd862      Cd  0.72381632  0.22097959  0.95471599     1.59600
O863        O  0.77719682  0.27507013  0.88373344    -0.80500
O864        O  0.75475497  0.25316372  0.00035198    -1.91000
Cd865      Cd  0.73516300  0.26967230  0.04395036     1.59900
O866        O  0.73679765  0.22982001  0.88058896    -0.80400
O867        O  0.73841498  0.26282223  0.11918863    -0.79100
C868        C  0.73429667  0.17356360  0.99985760     0.83500
C869        C  0.83472419  0.27464767  0.00326936     0.83100
O870        O  0.76636669  0.24206603  0.11658050    -0.78000
C871        C  0.77506457  0.33380266  0.00845422     0.83900
O872        O  0.75437743  0.19337548  0.02851492    -0.78100
C873        C  0.75740720  0.25226188  0.85906183     0.84100
C874        C  0.67430337  0.23295246  0.99007587     0.84400
O875        O  0.68305992  0.21923868  0.96057558    -0.80500
O876        O  0.81208817  0.24868638  0.52190396    -0.78000
C877        C  0.75257907  0.24698857  0.64065079     0.83000
O878        O  0.71465845  0.17741507  0.46106032    -0.79200
O879        O  0.68596525  0.24501814  0.53178893    -0.80600
O880        O  0.78361562  0.32226595  0.47857717    -0.80400
O881        O  0.82381594  0.28555250  0.46977985    -0.79100
Zn882      Zn  0.76873644  0.23119512  0.53821607     1.55700
O883        O  0.74790004  0.30862967  0.53530298    -0.80500
Cd884      Cd  0.78254422  0.28241336  0.46046140     1.59700
Cd885      Cd  0.71884493  0.21889881  0.45259353     1.59600
O886        O  0.77246439  0.27413988  0.38422614    -0.80500
O887        O  0.75061516  0.24897795  0.49949368    -1.91000
Cd888      Cd  0.73103712  0.26401461  0.54656207     1.59900
O889        O  0.73049149  0.23047237  0.37895708    -0.80400
O890        O  0.73827437  0.25798667  0.62076892    -0.79100
C891        C  0.72883299  0.16952033  0.48940537     0.83500
C892        C  0.83086717  0.26956261  0.49507968     0.83100
O893        O  0.76528669  0.23638631  0.61338636    -0.78000
C894        C  0.76735376  0.32794235  0.50712238     0.83900
O895        O  0.74885945  0.18758889  0.52015195    -0.78100
C896        C  0.75166914  0.25293643  0.35847580     0.84100
C897        C  0.66909097  0.22832382  0.49591506     0.84400
O898        O  0.67820113  0.21667747  0.46284811    -0.80500
O899        O  0.56400154  0.25174616  0.96292257    -0.78000
C900        C  0.50168799  0.25146626  0.85457448     0.83000
O901        O  0.53782825  0.32162286  0.03390533    -0.79200
O902        O  0.93995434  0.25068136  0.96992054    -0.80600
O903        O  0.96733003  0.17697816  0.01644960    -0.80400
O904        O  0.54111039  0.21557489  0.01703620    -0.79100
Zn905      Zn  0.53699391  0.26865456  0.95311520     1.55700
O906        O  0.94044842  0.18706860  0.96499354    -0.80500
Cd907      Cd  0.50308210  0.21754446  0.03361147     1.59700
Cd908      Cd  0.50082117  0.27981496  0.04281560     1.59600
O909        O  0.00388889  0.22699257  0.10725456    -0.80500
O910        O  0.50231577  0.24981115  0.99518555    -1.91000
Cd911      Cd  0.96548656  0.23194324  0.95174651     1.59900
O912        O  0.00415423  0.26994497  0.11400108    -0.80400
O913        O  0.97415007  0.23606463  0.87571143    -0.79100
C914        C  0.55908803  0.33016471  0.00319741     0.83500
C915        C  0.56318785  0.23132712  0.98934371     0.83100
O916        O  0.52577009  0.26391426  0.87964573    -0.78000
C917        C  0.94404086  0.16877926  0.99033845     0.83900
O918        O  0.56061159  0.31229511  0.97126925    -0.78100
C919        C  0.00369731  0.24767588  0.13376339     0.84100
C920        C  0.94221020  0.27008825  0.00277596     0.84400
O921        O  0.96463777  0.28385440  0.03206872    -0.80500
O922        O  0.97311208  0.23531466  0.60827990    -0.78000
C923        C  0.93965377  0.26727025  0.48848469     0.83000
O924        O  0.96275019  0.17451383  0.46044833    -0.79200
O925        O  0.49731796  0.26908277  0.37826864    -0.80600
O926        O  0.56062915  0.31253497  0.52686754    -0.80400
O927        O  0.52453339  0.26329421  0.61486682    -0.79100
Zn928      Zn  0.96394145  0.23038400  0.53392580     1.55700
O929        O  0.53743935  0.32245841  0.46733603    -0.80500
Cd930      Cd  0.53491976  0.26789218  0.53959223     1.59700
Cd931      Cd  0.00081010  0.21542817  0.44984738     1.59600
O932        O  0.56072875  0.24913117  0.52499681    -0.80500
O933        O  0.99933426  0.24713096  0.49353192    -1.91000
Cd934      Cd  0.00029603  0.27898178  0.45132635     1.59900
O935        O  0.53725336  0.21449377  0.46439142    -0.80400
O936        O  0.96172597  0.28134809  0.45987010    -0.79100
C937        C  0.94085503  0.16770560  0.48906753     0.83500
C938        C  0.99668257  0.24690895  0.63463717     0.83100
O939        O  0.93844717  0.24824332  0.51883578    -0.78000
C940        C  0.55928997  0.33063067  0.49736995     0.83900
O941        O  0.93948744  0.18678023  0.51821948    -0.78100
C942        C  0.55912461  0.22890280  0.49482297     0.84100
C943        C  0.49690327  0.24717196  0.35463666     0.84400
O944        O  0.49766203  0.22634949  0.37746589    -0.80500
O945        O  0.81587575  0.06098139  0.97516491    -0.78000
C946        C  0.75148740  0.00160370  0.86337737     0.83000
O947        O  0.72236061  0.04329772  0.03754748    -0.79200
O948        O  0.68659818  0.43736918  0.98197586    -0.80600
O949        O  0.78399686  0.46377311  0.03902699    -0.80400
O950        O  0.82651387  0.03810489  0.03364311    -0.79100
Zn951      Zn  0.77209063  0.03766029  0.96263512     1.55700
O952        O  0.75064858  0.43904567  0.97813524    -0.80500
Cd953      Cd  0.78482548  0.00211119  0.04752889     1.59700
Cd954      Cd  0.72337470  0.00447663  0.04787147     1.59600
O955        O  0.77568391  0.00400687  0.12277863    -0.80500
O956        O  0.75405145  0.00317922  0.00441631    -1.91000
Cd957      Cd  0.73055737  0.46371590  0.96577034     1.59900
O958        O  0.73323671  0.00390368  0.12283769    -0.80400
O959        O  0.73360754  0.47301120  0.89023677    -0.79100
C960        C  0.73703895  0.06471730  0.00835023     0.83500
C961        C  0.83444674  0.05938797  0.00362454     0.83100
O962        O  0.76452026  0.02615607  0.88870530    -0.78000
C963        C  0.77075810  0.44164974  0.00799672     0.83900
O964        O  0.75605924  0.06486008  0.97839582    -0.78100
C965        C  0.75049817  0.50417923  0.15158094     0.84100
C966        C  0.66930085  0.43948189  0.01325741     0.84400
O967        O  0.67763673  0.46215093  0.04276013    -0.80500
O968        O  0.74907106  0.43872174  0.53666495    -0.78000
C969        C  0.75039104  0.50101609  0.65200740     0.83000
O970        O  0.67825937  0.46166418  0.47720680    -0.79200
O971        O  0.74826877  0.06351036  0.52934412    -0.80600
O972        O  0.82147894  0.03624300  0.47596604    -0.80400
O973        O  0.78474725  0.46133234  0.48069962    -0.79100
Zn974      Zn  0.73228240  0.46508655  0.55269865     1.55700
O975        O  0.81221551  0.06428530  0.52960068    -0.80500
Cd976      Cd  0.78230884  0.49955538  0.46878863     1.59700
Cd977      Cd  0.71931095  0.49951828  0.46694740     1.59600
O978        O  0.77203375  0.99723454  0.38815486    -0.80500
O979        O  0.75041774  0.49956789  0.51097331    -1.91000
Cd980      Cd  0.76776877  0.03868326  0.54581200     1.59900
O981        O  0.73065876  0.99903658  0.38413345    -0.80400
O982        O  0.76365552  0.03042135  0.62207304    -0.79100
C983        C  0.67040750  0.44073567  0.50800427     0.83500
C984        C  0.76893793  0.43933541  0.50833398     0.83100
O985        O  0.73760409  0.47635675  0.62698693    -0.78000
C986        C  0.82979317  0.06022221  0.50186038     0.83900
O987        O  0.68886793  0.44025099  0.53809594    -0.78100
C988        C  0.75200288  0.99815221  0.36293708     0.84100
C989        C  0.72880539  0.06037107  0.49739970     0.84400
O990        O  0.71560552  0.03760875  0.46778858    -0.80500
C991        C  0.72631509  0.98472003  0.72571667    -0.05300
C992        C  0.75135786  0.00671360  0.70152876     0.00600
C993        C  0.77616207  0.51325122  0.73682073    -0.08000
C994        C  0.77398526  0.51125700  0.78934237    -0.05400
C995        C  0.75038218  0.00233555  0.80765821     0.00600
C996        C  0.72514376  0.98233969  0.77834673    -0.07900
C997        C  0.69667181  0.95925169  0.80221607     0.62500
H998        H  0.70739845  0.96930153  0.70281587     0.13200
H999        H  0.79373284  0.52045518  0.81256798     0.13200
C1000       C  0.80626679  0.52907021  0.71290074     0.62700
F1001       F  0.67373791  0.94558587  0.76744912    -0.22400
F1002       F  0.69209178  0.49738736  0.84112752    -0.19800
F1003       F  0.70049760  0.93737827  0.82284384    -0.19400
F1004       F  0.81046370  0.55485125  0.69207605    -0.19500
F1005       F  0.81413058  0.03892276  0.67209816    -0.19800
F1006       F  0.82873284  0.53680218  0.74763360    -0.22500
C1007       C  0.76296071  0.98524982  0.22448275    -0.05300
C1008       C  0.75437344  0.00369758  0.20166897     0.00600
C1009       C  0.74627126  0.02114720  0.23218821    -0.08000
C1010       C  0.74593221  0.01851765  0.28456765    -0.05400
C1011       C  0.75391249  0.99961746  0.30741930     0.00600
C1012       C  0.76296159  0.98286675  0.27702364    -0.07900
C1013       C  0.77180675  0.96196478  0.29937538     0.62500
H1014       H  0.76938449  0.97234517  0.20053946     0.13200
H1015       H  0.73950852  0.03148556  0.30835719     0.13200
C1016       C  0.73894754  0.04319573  0.21005006     0.62700
F1017       F  0.77465157  0.44693463  0.26753150    -0.22400
F1018       F  0.75028290  0.44505879  0.33768131    -0.19800
F1019       F  0.79786394  0.97821659  0.32646136    -0.19400
F1020       F  0.70912163  0.52891025  0.19120708    -0.19500
F1021       F  0.76084142  0.06117979  0.17739311    -0.19800
F1022       F  0.73689713  0.06147120  0.24678498    -0.22500
C1023       C  0.59757989  0.37404603  0.54612985    -0.05300
C1024       C  0.58451227  0.36175399  0.49888314     0.00600
C1025       C  0.59800443  0.37778709  0.45508518    -0.08000
C1026       C  0.62533162  0.40451681  0.46014525    -0.05400
C1027       C  0.63953099  0.41542847  0.50710724     0.00600
C1028       C  0.62476604  0.40071524  0.55123602    -0.07900
C1029       C  0.63738573  0.41281054  0.60368052     0.62500
H1030       H  0.58676092  0.36184220  0.57933792     0.13200
H1031       H  0.63662071  0.41633255  0.42693668     0.13200
C1032       C  0.58457593  0.36611999  0.40306133     0.62700
F1033       F  0.61653760  0.39878180  0.64042009    -0.22400
F1034       F  0.64695573  0.44290247  0.60772915    -0.19800
F1035       F  0.66068026  0.40837493  0.61325194    -0.19400
F1036       F  0.55752943  0.36443379  0.39998785    -0.19500
F1037       F  0.58097654  0.33817914  0.39382550    -0.19800
F1038       F  0.60215709  0.38448323  0.36568523    -0.22500
C1039       C  0.90774642  0.12194047  0.53321969    -0.05300
C1040       C  0.91539301  0.13719568  0.48809285     0.00600
C1041       C  0.89597273  0.12548473  0.44606212    -0.08000
C1042       C  0.86881272  0.09902896  0.45124325    -0.05400
C1043       C  0.86039613  0.08487235  0.49736868     0.00600
C1044       C  0.88036782  0.09582519  0.53863430    -0.07900
C1045       C  0.87240513  0.08033576  0.58833661     0.62500
H1046       H  0.92284162  0.13152478  0.56504137     0.13200
H1047       H  0.85315719  0.09012134  0.42011586     0.13200
C1048       C  0.90310633  0.14203355  0.39729102     0.62700
F1049       F  0.89609689  0.09252089  0.62167671    -0.22400
F1050       F  0.86326180  0.05050614  0.58046680    -0.19800
F1051       F  0.84993479  0.08302833  0.61005186    -0.19400
F1052       F  0.92868297  0.14477987  0.37751616    -0.19500
F1053       F  0.90694880  0.17009218  0.40635031    -0.19800
F1054       F  0.88081778  0.12734482  0.36164736    -0.22500
C1055       C  0.97639526  0.25018540  0.77173560    -0.05300
C1056       C  0.50228144  0.25212333  0.79889125     0.00600
C1057       C  0.52279690  0.24810242  0.76991017    -0.08000
C1058       C  0.52100160  0.24805321  0.71721030    -0.05400
C1059       C  0.99518991  0.24567854  0.69028786     0.00600
C1060       C  0.97449252  0.24963181  0.71889348    -0.07900
C1061       C  0.95090200  0.25388878  0.69424002     0.62500
H1062       H  0.96120934  0.25377081  0.79427839     0.13200
H1063       H  0.53645882  0.24497507  0.69452246     0.13200
C1064       C  0.54600379  0.24302331  0.79399848     0.62700
F1065       F  0.93540559  0.26063683  0.72921974    -0.22400
F1066       F  0.93092856  0.22797345  0.66841798    -0.19800
F1067       F  0.96369463  0.27699815  0.66126373    -0.19400
F1068       F  0.53289668  0.22014871  0.82737937    -0.19500
F1069       F  0.56678064  0.26877614  0.81920355    -0.19800
F1070       F  0.56059101  0.23530780  0.75864058    -0.22500
C1071       C  0.02279610  0.27223538  0.21683942    -0.05300
C1072       C  0.00337229  0.24621475  0.18934379     0.00600
C1073       C  0.51833503  0.23824652  0.22207372    -0.08000
C1074       C  0.51607874  0.23879571  0.27476949    -0.05400
C1075       C  0.49678233  0.24625787  0.29881445     0.00600
C1076       C  0.02355330  0.27337248  0.26968615    -0.07900
C1077       C  0.04592973  0.30188462  0.29710903     0.62500
H1078       H  0.03753890  0.29183508  0.19633849     0.13200
H1079       H  0.52996593  0.23399653  0.29791406     0.13200
C1080       C  0.54103613  0.23197786  0.19862641     0.62700
F1081       F  0.06587071  0.32254608  0.26458728    -0.22400
F1082       F  0.06164722  0.29563851  0.33132803    -0.19800
F1083       F  0.03160748  0.31460566  0.32178476    -0.19400
F1084       F  0.55934621  0.25533243  0.16880992    -0.19500
F1085       F  0.52717524  0.20576640  0.16996294    -0.19800
F1086       F  0.55837491  0.22910935  0.23449122    -0.22500
C1087       C  0.59918514  0.37093348  0.05328882    -0.05300
C1088       C  0.58406299  0.36102690  0.00700800     0.00600
C1089       C  0.59520447  0.37914472  0.96463127    -0.08000
C1090       C  0.62251491  0.40568459  0.96923494    -0.05400
C1091       C  0.63867824  0.41449528  0.01453782     0.00600
C1092       C  0.62670139  0.39733702  0.05774392    -0.07900
C1093       C  0.64381399  0.40567678  0.10716539     0.62500
H1094       H  0.59017045  0.35673568  0.08520065     0.13200
H1095       H  0.63207483  0.41929940  0.93679646     0.13200
C1096       C  0.57834108  0.37064678  0.91493437     0.62700
F1097       F  0.62868320  0.38513018  0.14362658    -0.22400
F1098       F  0.64885017  0.43308752  0.12500230    -0.19800
F1099       F  0.67051155  0.40699589  0.09995747    -0.19400
F1100       F  0.54975401  0.36423525  0.92306371    -0.19500
F1101       F  0.57786800  0.34602881  0.89291142    -0.19800
F1102       F  0.59105507  0.39351101  0.88139833    -0.22500
C1103       C  0.87642896  0.09499311  0.95358641    -0.05300
C1104       C  0.86574991  0.08351490  0.00111246     0.00600
C1105       C  0.88380917  0.09761695  0.04439950    -0.08000
C1106       C  0.91051882  0.12462263  0.03877413    -0.05400
C1107       C  0.91951788  0.13756991  0.99170824     0.00600
C1108       C  0.90326250  0.12162447  0.94798855    -0.07900
C1109       C  0.91400346  0.13258938  0.89557791     0.62500
H1110       H  0.86288734  0.08351644  0.92065896     0.13200
H1111       H  0.92373707  0.13679266  0.07160913     0.13200
C1112       C  0.87442036  0.08529167  0.09650124     0.62700
F1113       F  0.89888366  0.11039158  0.85911264    -0.22400
F1114       F  0.94360301  0.14165217  0.89188020    -0.19800
F1115       F  0.90992642  0.15615589  0.88559405    -0.19400
F1116       F  0.87131871  0.05732275  0.09770377    -0.19500
F1117       F  0.84792240  0.08341840  0.10842722    -0.19800
F1118       F  0.89496778  0.10310402  0.13314504    -0.22500
C1119       C  0.74637264  0.38635623  0.48600734    -0.05300
C1120       C  0.77125384  0.41224923  0.50474461     0.00600
C1121       C  0.79582127  0.41085167  0.52271853    -0.08000
C1122       C  0.79435752  0.38299451  0.52191830    -0.05400
C1123       C  0.76894980  0.35696962  0.50461946     0.00600
C1124       C  0.74472200  0.35863944  0.48552657    -0.07900
C1125       C  0.71714656  0.33121916  0.46467016     0.62500
H1126       H  0.72779811  0.38797104  0.47263706     0.13200
H1127       H  0.81266159  0.38116958  0.53601232     0.13200
C1128       C  0.82281248  0.43840922  0.54407028     0.62700
F1129       F  0.69826155  0.33855065  0.44143073    -0.22400
F1130       F  0.70205055  0.31241041  0.50319432    -0.19800
F1131       F  0.72478741  0.31629359  0.42944583    -0.19400
F1132       F  0.81475255  0.45081105  0.58323360    -0.19500
F1133       F  0.83575730  0.45897157  0.50692933    -0.19800
F1134       F  0.84352290  0.43196214  0.56227334    -0.22500
C1135       C  0.73493674  0.10272968  0.44991251    -0.05300
C1136       C  0.72322238  0.08513396  0.49204142     0.00600
C1137       C  0.70923642  0.09317268  0.52968684    -0.08000
C1138       C  0.70974760  0.12031894  0.52605757    -0.05400
C1139       C  0.72329261  0.13891208  0.48561103     0.00600
C1140       C  0.73535646  0.12978369  0.44610930    -0.07900
C1141       C  0.75002616  0.14938457  0.40167699     0.62500
H1142       H  0.74523080  0.09587957  0.42131416     0.13200
H1143       H  0.70059285  0.12780078  0.55572522     0.13200
C1144       C  0.69388048  0.07308284  0.57313809     0.62700
F1145       F  0.76056136  0.13643922  0.36763580    -0.21800
F1146       F  0.77351376  0.17641939  0.41837610    -0.19800
F1147       F  0.72990535  0.15427116  0.37676043    -0.19400
F1148       F  0.71421140  0.07090867  0.60272241    -0.19500
F1149       F  0.67322493  0.04503371  0.55458625    -0.19800
F1150       F  0.67945150  0.08377658  0.60313896    -0.22500
C1151       C  0.59846023  0.22497060  0.44889129    -0.05300
C1152       C  0.58426390  0.22327639  0.49449672     0.00600
C1153       C  0.59614300  0.21935720  0.53945765    -0.08000
C1154       C  0.62312029  0.21968697  0.53774344    -0.05400
C1155       C  0.63846060  0.22334578  0.49266338     0.00600
C1156       C  0.62550115  0.22525221  0.44703552    -0.07900
C1157       C  0.64080244  0.22929507  0.39690672     0.62500
H1158       H  0.58892000  0.22767321  0.41488282     0.13200
H1159       H  0.63294891  0.21796888  0.57225035     0.13200
C1160       C  0.58043710  0.21486546  0.58926255     0.62700
F1161       F  0.62548759  0.23294717  0.35822167    -0.22400
F1162       F  0.64299782  0.20448593  0.38480032    -0.19800
F1163       F  0.66867452  0.25425736  0.39972872    -0.19400
F1164       F  0.55083271  0.19396687  0.58298712    -0.19500
F1165       F  0.58338904  0.24146526  0.60707868    -0.19800
F1166       F  0.59190625  0.20475706  0.62528891    -0.22500
C1167       C  0.86934685  0.26550411  0.44678246    -0.05300
C1168       C  0.86110854  0.27399922  0.49179495     0.00600
C1169       C  0.88050809  0.28348961  0.53393262    -0.08000
C1170       C  0.90659005  0.28208862  0.53076602    -0.05400
C1171       C  0.91421453  0.27231615  0.48649641     0.00600
C1172       C  0.89566782  0.26448437  0.44334625    -0.07900
C1173       C  0.90296556  0.25369620  0.39472071     0.62500
H1174       H  0.85431501  0.25843038  0.41486900     0.13200
H1175       H  0.92106283  0.28813483  0.56329410     0.13200
C1176       C  0.87384908  0.29558038  0.58164481     0.62700
F1177       F  0.88128906  0.24556324  0.35822916    -0.22400
F1178       F  0.90574805  0.22917779  0.40347319    -0.19800
F1179       F  0.92916258  0.27612687  0.37615359    -0.19400
F1180       F  0.84854344  0.27357737  0.60326846    -0.19500
F1181       F  0.86987405  0.31905696  0.57016850    -0.19800
F1182       F  0.89659417  0.30586584  0.61668342    -0.22500
C1183       C  0.75153647  0.26947519  0.72350440    -0.05300
C1184       C  0.75489438  0.24763055  0.69678017     0.00600
C1185       C  0.75950623  0.22722765  0.72435803    -0.08000
C1186       C  0.76077961  0.22988271  0.77743015    -0.05400
C1187       C  0.75764612  0.25193510  0.80345092     0.00600
C1188       C  0.75253393  0.27179574  0.77629014    -0.07900
C1189       C  0.74686059  0.29453273  0.80315660     0.62500
H1190       H  0.74803406  0.28495095  0.70260433     0.13200
H1191       H  0.76415072  0.21462802  0.79930755     0.13200
C1192       C  0.76215045  0.20216965  0.69874521     0.62700
F1193       F  0.73944743  0.30971566  0.76993635    -0.22400
F1194       F  0.77180587  0.31511700  0.82974739    -0.19800
F1195       F  0.72379376  0.28029120  0.83604751    -0.19400
F1196       F  0.78771276  0.21381827  0.67110123    -0.19500
F1197       F  0.73802719  0.18528911  0.66738654    -0.19800
F1198       F  0.76322924  0.18331329  0.73315355    -0.22500
C1199       C  0.75674164  0.27719964  0.22338719    -0.05300
C1200       C  0.75203057  0.25146361  0.19670866     0.00600
C1201       C  0.74692621  0.22614789  0.22335102    -0.08000
C1202       C  0.74683693  0.22768853  0.27619576    -0.05400
C1203       C  0.75229167  0.25368039  0.30291985     0.00600
C1204       C  0.75727134  0.27894676  0.27625337    -0.07900
C1205       C  0.76227194  0.30731454  0.30313659     0.62500
H1206       H  0.76053861  0.29624646  0.20224638     0.13200
H1207       H  0.74305448  0.20863731  0.29730969     0.13200
C1208       C  0.74115000  0.19747373  0.19645703     0.62700
F1209       F  0.76321206  0.32769466  0.26985930    -0.22400
F1210       F  0.78877609  0.32064013  0.32933518    -0.19800
F1211       F  0.73958574  0.30071805  0.33617987    -0.19400
F1212       F  0.76660032  0.20183297  0.17349035    -0.19500
F1213       F  0.71906715  0.18870117  0.16057887    -0.19800
F1214       F  0.73234383  0.17447313  0.22936135    -0.22500
C1215       C  0.78302580  0.37846849  0.96490312    -0.05300
C1216       C  0.78056757  0.36471175  0.01060447     0.00600
C1217       C  0.78022189  0.37940030  0.05630776    -0.08000
C1218       C  0.77874087  0.40560214  0.05402154    -0.05400
C1219       C  0.77783959  0.41746276  0.00785599     0.00600
C1220       C  0.78181110  0.40478505  0.96271403    -0.07900
C1221       C  0.78455449  0.41876604  0.91230110     0.62500
H1222       H  0.78400552  0.36743568  0.93037033     0.13200
H1223       H  0.77660315  0.41606880  0.08834465     0.13200
C1224       C  0.78139609  0.36764897  0.10732230     0.62700
F1225       F  0.79515971  0.40714237  0.87588064    -0.22400
F1226       F  0.80395195  0.44913573  0.91653544    -0.19800
F1227       F  0.75730319  0.41351876  0.89637280    -0.19400
F1228       F  0.80282432  0.35968197  0.10755862    -0.19500
F1229       F  0.75439985  0.34316355  0.11784808    -0.19800
F1230       F  0.78828732  0.38894939  0.14545635    -0.22500
C1231       C  0.73380032  0.13367875  0.04817047    -0.05300
C1232       C  0.72944549  0.14293507  0.00149090     0.00600
C1233       C  0.72500880  0.12480665  0.95768556    -0.08000
C1234       C  0.72649638  0.09872043  0.96214375    -0.05400
C1235       C  0.73212704  0.09028180  0.00847715     0.00600
C1236       C  0.73549914  0.10777196  0.05246700    -0.07900
C1237       C  0.74271616  0.10021981  0.10312730     0.62500
H1238       H  0.73702182  0.14767085  0.08130850     0.13200
H1239       H  0.72395566  0.08491742  0.92907619     0.13200
C1240       C  0.72003552  0.13340974  0.90617079     0.62700
F1241       F  0.71957632  0.07331580  0.11795595    -0.22400
F1242       F  0.74748816  0.12153013  0.14016434    -0.19800
F1243       F  0.76800439  0.09839324  0.09947101    -0.19400
F1244       F  0.74319515  0.16122238  0.89486184    -0.19500
F1245       F  0.69397302  0.13386169  0.90579780    -0.19800
F1246       F  0.71805735  0.11344261  0.86862534    -0.22500
C1247       C  0.60435163  0.23050948  0.94337012    -0.05300
C1248       C  0.58924054  0.22692011  0.98882125     0.00600
C1249       C  0.60115743  0.22244969  0.03336999    -0.08000
C1250       C  0.62811222  0.22284735  0.03108283    -0.05400
C1251       C  0.64369602  0.22754067  0.98622122     0.00600
C1252       C  0.63136865  0.23077545  0.94118633    -0.07900
C1253       C  0.64738429  0.23605131  0.89164327     0.62500
H1254       H  0.59512630  0.23387081  0.90959293     0.13200
H1255       H  0.63788682  0.22042767  0.06504826     0.13200
C1256       C  0.58676933  0.21945269  0.08400487     0.62700
F1257       F  0.63253948  0.24044845  0.85305720    -0.22400
F1258       F  0.65006095  0.21166493  0.87826702    -0.19800
F1259       F  0.67509949  0.26106190  0.89648176    -0.19400
F1260       F  0.55963151  0.19356016  0.08405393    -0.19500
F1261       F  0.58332868  0.24375104  0.09318657    -0.19800
F1262       F  0.60353452  0.21838394  0.12299544    -0.22500
C1263       C  0.87532334  0.27355727  0.04872455    -0.05300
C1264       C  0.86523225  0.27933836  0.00384085     0.00600
C1265       C  0.88267864  0.28535317  0.96001763    -0.08000
C1266       C  0.90853732  0.28357273  0.96225886    -0.05400
C1267       C  0.91761990  0.27626173  0.00639431     0.00600
C1268       C  0.90111867  0.27169019  0.05077801    -0.07900
C1269       C  0.90953796  0.26287925  0.09916644     0.62500
H1270       H  0.86205324  0.26924926  0.08204001     0.13200
H1271       H  0.92158086  0.28701267  0.92886463     0.13200
C1272       C  0.87361337  0.29225022  0.91038233     0.62700
F1273       F  0.88981797  0.25830934  0.13727831    -0.22400
F1274       F  0.93710362  0.28511384  0.11555993    -0.19800
F1275       F  0.90994983  0.23674022  0.09081306    -0.19400
F1276       F  0.87293519  0.31839193  0.91575303    -0.19500
F1277       F  0.84607641  0.26918145  0.89554041    -0.19800
F1278       F  0.89311748  0.29589672  0.87238555    -0.22500
O1279       O  0.80747049  0.74691293  0.04091134    -0.78000
C1280       C  0.74406420  0.74463912  0.15212305     0.83000
O1281       O  0.71085322  0.67555902  0.97295514    -0.79200
O1282       O  0.68443241  0.74793462  0.03693966    -0.80600
O1283       O  0.78242140  0.82095879  0.98870894    -0.80400
O1284       O  0.82000113  0.78282265  0.98668223    -0.79100
Zn1285     Zn  0.76354730  0.72933747  0.05234278     1.55700
O1286       O  0.74825138  0.81045819  0.04700283    -0.80500
Cd1287     Cd  0.77965462  0.78025658  0.97245460     1.59700
Cd1288     Cd  0.71590325  0.71740433  0.96390583     1.59600
O1289       O  0.77085059  0.77162986  0.89588728    -0.80500
O1290       O  0.74708102  0.74777847  0.01134123    -1.91000
Cd1291     Cd  0.72840313  0.76504056  0.05595547     1.59900
O1292       O  0.72832726  0.72841370  0.89041040    -0.80400
O1293       O  0.73168113  0.75717067  0.13079238    -0.79100
C1294       C  0.72454812  0.66753534  0.00214615     0.83500
C1295       C  0.82676081  0.76735063  0.01393056     0.83100
O1296       O  0.75702440  0.73370830  0.12639761    -0.78000
C1297       C  0.76838685  0.82886086  0.01864764     0.83900
O1298       O  0.74408747  0.68571705  0.03353029    -0.78100
C1299       C  0.75000996  0.75047244  0.87011091     0.84100
C1300       C  0.66743734  0.72990669  0.00249661     0.84400
O1301       O  0.67579408  0.71616145  0.97235688    -0.80500
O1302       O  0.80901105  0.74988556  0.53794999    -0.78000
C1303       C  0.74871216  0.74805553  0.65250863     0.83000
O1304       O  0.71221783  0.67476963  0.47814958    -0.79200
O1305       O  0.68346271  0.74407090  0.54209422    -0.80600
O1306       O  0.77876581  0.82072705  0.48446214    -0.80400
O1307       O  0.82000466  0.78489551  0.48208270    -0.79100
Zn1308     Zn  0.76567806  0.73114357  0.55207329     1.55700
O1309       O  0.74471306  0.80792989  0.54370823    -0.80500
Cd1310     Cd  0.77839753  0.78060016  0.46991812     1.59700
Cd1311     Cd  0.71565298  0.71563387  0.46687406     1.59600
O1312       O  0.76746350  0.76964389  0.39397444    -0.80500
O1313       O  0.74742147  0.74774574  0.51126810    -1.91000
Cd1314     Cd  0.72826279  0.76381371  0.55684124     1.59900
O1315       O  0.72596652  0.72529137  0.39234845    -0.80400
O1316       O  0.73501481  0.75938985  0.63179398    -0.79100
C1317       C  0.72700719  0.66794055  0.50699790     0.83500
C1318       C  0.82753829  0.77032840  0.51028640     0.83100
O1319       O  0.76132316  0.73697797  0.62626167    -0.78000
C1320       C  0.76301630  0.82678959  0.51372642     0.83900
O1321       O  0.74716216  0.68728904  0.53629859    -0.78100
C1322       C  0.74649536  0.74739600  0.37012528     0.84100
C1323       C  0.66595363  0.72516561  0.50904968     0.84400
O1324       O  0.67471118  0.71217022  0.47810524    -0.80500
O1325       O  0.56198515  0.75426058  0.96506851    -0.78000
C1326       C  0.50227348  0.75691179  0.85199280     0.83000
O1327       O  0.54021774  0.82948479  0.02493305    -0.79200
O1328       O  0.93767297  0.75154967  0.97883125    -0.80600
O1329       O  0.96078571  0.67774573  0.03146802    -0.80400
O1330       O  0.53671785  0.71872410  0.01914832    -0.79100
Zn1331     Zn  0.53697927  0.77279326  0.95119601     1.55700
O1332       O  0.93765965  0.68857061  0.97300462    -0.80500
Cd1333     Cd  0.50050565  0.72363415  0.03287097     1.59700
Cd1334     Cd  0.50316732  0.78831758  0.03922617     1.59600
O1335       O  0.00026050  0.72821481  0.12118712    -0.80500
O1336       O  0.50224903  0.75645775  0.99291578    -1.91000
Cd1337     Cd  0.96401149  0.73351288  0.96182383     1.59900
O1338       O  0.00172015  0.77156783  0.12572872    -0.80400
O1339       O  0.97530183  0.73982293  0.88690455    -0.79100
C1340       C  0.56149578  0.83616833  0.99482820     0.83500
C1341       C  0.55953760  0.73358957  0.99275214     0.83100
O1342       O  0.52617107  0.76748921  0.87729492    -0.78000
C1343       C  0.93884683  0.67019185  0.00196106     0.83900
O1344       O  0.56229956  0.81654310  0.96629659    -0.78100
C1345       C  0.00128963  0.74968728  0.14702506     0.84100
C1346       C  0.93829384  0.76952184  0.01308531     0.84400
O1347       O  0.96002232  0.78298659  0.04399228    -0.80500
O1348       O  0.97608880  0.74209543  0.62504380    -0.78000
C1349       C  0.93745488  0.77038282  0.50785003     0.83000
O1350       O  0.96099394  0.67940332  0.47521726    -0.79200
O1351       O  0.50061735  0.77092214  0.37550320    -0.80600
O1352       O  0.56031854  0.81401776  0.52143470    -0.80400
O1353       O  0.52357979  0.76744732  0.61166240    -0.79100
Zn1354     Zn  0.96392491  0.73489925  0.55176407     1.55700
O1355       O  0.53515649  0.82370451  0.46554939    -0.80500
Cd1356     Cd  0.53438748  0.76984027  0.53712429     1.59700
Cd1357     Cd  0.99898582  0.72003662  0.46407642     1.59600
O1358       O  0.55973864  0.75012931  0.52873061    -0.80500
O1359       O  0.99830363  0.75157836  0.50889893    -1.91000
Cd1360     Cd  0.99731476  0.78253884  0.46736080     1.59900
O1361       O  0.53701706  0.71449096  0.46961668    -0.80400
O1362       O  0.95879194  0.78425413  0.47787483    -0.79100
C1363       C  0.93985737  0.67201283  0.50582659     0.83500
C1364       C  0.00053232  0.75469471  0.64912684     0.83100
O1365       O  0.93733430  0.75205382  0.53867807    -0.78000
C1366       C  0.55786333  0.83211099  0.49354459     0.83900
O1367       O  0.93924385  0.69070065  0.53719876    -0.78100
C1368       C  0.55808848  0.72884447  0.50144606     0.84100
C1369       C  0.50298883  0.75035680  0.35243872     0.84400
O1370       O  0.50354182  0.72964084  0.37593358    -0.80500
O1371       O  0.80913719  0.56103421  0.98006484    -0.78000
C1372       C  0.74652639  0.49774625  0.86835519     0.83000
O1373       O  0.71272197  0.53713953  0.03645153    -0.79200
O1374       O  0.69036951  0.94250061  0.97344336    -0.80600
O1375       O  0.78497342  0.96246135  0.03589049    -0.80400
O1376       O  0.82072067  0.53939294  0.03959527    -0.79100
Zn1377     Zn  0.76567402  0.53486406  0.96618842     1.55700
O1378       O  0.75145451  0.93901108  0.97481798    -0.80500
Cd1379     Cd  0.78039041  0.50146793  0.05245482     1.59700
Cd1380     Cd  0.71790029  0.50126243  0.05297073     1.59600
O1381       O  0.77083167  0.50261759  0.12785452    -0.80500
O1382       O  0.74884456  0.50076326  0.00915130    -1.91000
Cd1383     Cd  0.73489864  0.96659661  0.96014994     1.59900
O1384       O  0.72946720  0.50454980  0.12857575    -0.80400
O1385       O  0.73975547  0.97674435  0.88486008    -0.79100
C1386       C  0.72643152  0.55842021  0.00652306     0.83500
C1387       C  0.82784405  0.56063604  0.00981649     0.83100
O1388       O  0.76003909  0.52251285  0.89284357    -0.78000
C1389       C  0.77045150  0.94014057  0.00574607     0.83900
O1390       O  0.74663710  0.55973578  0.97822340    -0.78100
C1391       C  0.75451715  0.00416954  0.14603367     0.84100
C1392       C  0.67273274  0.94546423  0.00275657     0.84400
O1393       O  0.68160172  0.96798729  0.03282082    -0.80500
O1394       O  0.74685404  0.94057522  0.53655993    -0.78000
C1395       C  0.75080983  0.00618652  0.64549203     0.83000
O1396       O  0.67714481  0.96232287  0.46836732    -0.79200
O1397       O  0.74948859  0.56129522  0.54199190    -0.80600
O1398       O  0.82309446  0.53801752  0.48260087    -0.80400
O1399       O  0.78238773  0.96035907  0.48001594    -0.79100
Zn1400     Zn  0.73073861  0.96777256  0.54842480     1.55700
O1401       O  0.81285973  0.56251249  0.54191195    -0.80500
Cd1402     Cd  0.78062077  0.99839575  0.46423104     1.59700
Cd1403     Cd  0.71859093  0.99960898  0.45787774     1.59600
O1404       O  0.77256160  0.49964522  0.39323989    -0.80500
O1405       O  0.74930341  0.00084873  0.50431239    -1.91000
Cd1406     Cd  0.76851939  0.53602524  0.55547595     1.59900
O1407       O  0.73050362  0.50030313  0.39205247    -0.80400
O1408       O  0.76334945  0.52588134  0.63055350    -0.79100
C1409       C  0.66897089  0.94244718  0.50128512     0.83500
C1410       C  0.76633416  0.93952651  0.50942124     0.83100
O1411       O  0.73714204  0.98108391  0.62180460    -0.78000
C1412       C  0.83092802  0.56054815  0.51235966     0.83900
O1413       O  0.68729058  0.94302048  0.53305676    -0.78100
C1414       C  0.75184553  0.50014056  0.36936460     0.84100
C1415       C  0.72941830  0.55911122  0.51261557     0.84400
O1416       O  0.71571026  0.53701767  0.48171477    -0.80500
C1417       C  0.72251857  0.48742444  0.73115056    -0.05300
C1418       C  0.74994372  0.50068114  0.70744467     0.00600
C1419       C  0.77622721  0.02737686  0.73111127    -0.08000
C1420       C  0.77520247  0.02468031  0.78366930    -0.05400
C1421       C  0.74661586  0.49795750  0.81301600     0.00600
C1422       C  0.72042728  0.48663435  0.78390912    -0.07900
C1423       C  0.69074761  0.47545508  0.80861273     0.62500
H1424       H  0.70277666  0.47842664  0.70795601     0.13200
H1425       H  0.79410290  0.03999638  0.80668858     0.13200
C1426       C  0.80417386  0.05157349  0.70770678     0.62700
F1427       F  0.66854827  0.46826614  0.77358056    -0.22400
F1428       F  0.68847083  0.97272255  0.83938033    -0.19800
F1429       F  0.68339339  0.45032716  0.83526570    -0.19400
F1430       F  0.79858678  0.07190075  0.68544727    -0.19500
F1431       F  0.80819894  0.51093847  0.67581395    -0.19800
F1432       F  0.82653080  0.06702286  0.74300668    -0.22500
C1433       C  0.76010848  0.48612735  0.23008086    -0.05300
C1434       C  0.75099041  0.50423287  0.20749528     0.00600
C1435       C  0.74324131  0.52182722  0.23853197    -0.08000
C1436       C  0.74379433  0.51962938  0.29108047    -0.05400
C1437       C  0.75263885  0.50129013  0.31360612     0.00600
C1438       C  0.76127159  0.48440500  0.28263467    -0.07900
C1439       C  0.77109252  0.46413783  0.30447558     0.62500
H1440       H  0.76622757  0.47305552  0.20593102     0.13200
H1441       H  0.73760662  0.53263922  0.31526304     0.13200
C1442       C  0.73581157  0.54389746  0.21680030     0.62700
F1443       F  0.77617119  0.94523042  0.26258659    -0.22400
F1444       F  0.74990775  0.94247371  0.33066082    -0.19800
F1445       F  0.79784940  0.48109126  0.32930576    -0.19400
F1446       F  0.71221692  0.02806534  0.18461533    -0.19500
F1447       F  0.75777178  0.56207222  0.18439373    -0.19800
F1448       F  0.73366558  0.56196369  0.25384512    -0.22500
C1449       C  0.59729802  0.87497639  0.54142497    -0.05300
C1450       C  0.58271014  0.86350807  0.49496915     0.00600
C1451       C  0.59429785  0.88081263  0.45166253    -0.08000
C1452       C  0.62196835  0.90734769  0.45569151    -0.05400
C1453       C  0.63787523  0.91726385  0.50152294     0.00600
C1454       C  0.62432286  0.90180368  0.54582706    -0.07900
C1455       C  0.63806532  0.91306210  0.59787904     0.62500
H1456       H  0.58775834  0.86206743  0.57457102     0.13200
H1457       H  0.63198817  0.91985824  0.42240595     0.13200
C1458       C  0.57822096  0.87096444  0.40122626     0.62700
F1459       F  0.61767580  0.89928693  0.63534794    -0.22400
F1460       F  0.64876997  0.94334634  0.60338166    -0.19800
F1461       F  0.66073149  0.90730561  0.60492853    -0.19400
F1462       F  0.55109641  0.86905976  0.40536457    -0.19500
F1463       F  0.57422856  0.84349473  0.38615391    -0.19800
F1464       F  0.59365768  0.89086728  0.36409243    -0.22500
C1465       C  0.90552136  0.62674407  0.55047661    -0.05300
C1466       C  0.91464412  0.64114209  0.50467842     0.00600
C1467       C  0.89752533  0.62740902  0.46046525    -0.08000
C1468       C  0.87130455  0.59977576  0.46407308    -0.05400
C1469       C  0.86131270  0.58627921  0.51045339     0.00600
C1470       C  0.87901202  0.59949413  0.55424028    -0.07900
C1471       C  0.86959867  0.58540209  0.60500681     0.62500
H1472       H  0.91879731  0.63772432  0.58388562     0.13200
H1473       H  0.85741507  0.58933454  0.43108205     0.13200
C1474       C  0.90580456  0.64278429  0.41048794     0.62700
F1475       F  0.89220120  0.59886168  0.64040811    -0.22400
F1476       F  0.86104426  0.55555510  0.60082742    -0.19800
F1477       F  0.84636169  0.58833010  0.62215827    -0.19400
F1478       F  0.93212999  0.64570449  0.39436805    -0.19500
F1479       F  0.90875771  0.67068432  0.41588093    -0.19800
F1480       F  0.88464676  0.62689815  0.37354520    -0.22500
C1481       C  0.98323054  0.76101697  0.78634696    -0.05300
C1482       C  0.50290846  0.75751521  0.79606173     0.00600
C1483       C  0.52428696  0.75497945  0.76685774    -0.08000
C1484       C  0.52179677  0.75398328  0.71415178    -0.05400
C1485       C  0.00055329  0.75489828  0.70468100     0.00600
C1486       C  0.98280231  0.76283967  0.73381059    -0.07900
C1487       C  0.96476470  0.77476288  0.71002733     0.62500
H1488       H  0.96945569  0.76650687  0.80925690     0.13200
H1489       H  0.53763705  0.75162580  0.69132285     0.13200
C1490       C  0.54937170  0.75273300  0.79044973     0.62700
F1491       F  0.95276987  0.78524592  0.74589498    -0.22400
F1492       F  0.94184201  0.75255675  0.68155046    -0.19800
F1493       F  0.98260440  0.79812643  0.67967648    -0.19400
F1494       F  0.53827160  0.72964174  0.82351411    -0.19500
F1495       F  0.56851566  0.77920651  0.81574633    -0.19800
F1496       F  0.56547444  0.74729585  0.75475921    -0.22500
C1497       C  0.99802362  0.77141469  0.22930018    -0.05300
C1498       C  0.00139314  0.74940398  0.20339176     0.00600
C1499       C  0.52283068  0.78219487  0.22218289    -0.08000
C1500       C  0.52095221  0.77907576  0.27472810    -0.05400
C1501       C  0.50539449  0.75107990  0.29660651     0.00600
C1502       C  0.99704106  0.77321968  0.28201269    -0.07900
C1503       C  0.99193672  0.79717377  0.30571321     0.62500
H1504       H  0.99569507  0.78733978  0.20764570     0.13200
H1505       H  0.53185439  0.79869544  0.29937723     0.13200
C1506       C  0.54237483  0.81288510  0.20126596     0.62700
F1507       F  0.98792858  0.81375569  0.27022868    -0.22400
F1508       F  0.01594643  0.81669349  0.33535579    -0.19800
F1509       F  0.96681151  0.78397421  0.33428975    -0.19400
F1510       F  0.52526644  0.82277789  0.17922969    -0.19500
F1511       F  0.56118562  0.81170109  0.16596141    -0.19800
F1512       F  0.55957395  0.83359141  0.23852460    -0.22500
C1513       C  0.59707030  0.88289234  0.04078100    -0.05300
C1514       C  0.58684003  0.86711695  0.99453565     0.00600
C1515       C  0.60259365  0.88012273  0.95014605    -0.08000
C1516       C  0.62963682  0.90692165  0.95453705    -0.05400
C1517       C  0.64132923  0.92130480  0.00134008     0.00600
C1518       C  0.62422194  0.90984815  0.04518072    -0.07900
C1519       C  0.63511681  0.92488064  0.09672359     0.62500
H1520       H  0.58444241  0.87295462  0.07413795     0.13200
H1521       H  0.64263261  0.91616127  0.92118805     0.13200
C1522       C  0.59188058  0.86552569  0.89823936     0.62700
F1523       F  0.61566394  0.90901274  0.13427975    -0.22400
F1524       F  0.63827882  0.95290870  0.09722018    -0.19800
F1525       F  0.66192647  0.92730522  0.10793752    -0.19400
F1526       F  0.56178476  0.85375475  0.89329843    -0.19500
F1527       F  0.59846688  0.84312989  0.89087703    -0.19800
F1528       F  0.60526883  0.88584712  0.86074480    -0.22500
C1529       C  0.87222565  0.59552319  0.96347480    -0.05300
C1530       C  0.85839565  0.58614261  0.00997753     0.00600
C1531       C  0.87248303  0.60317623  0.05438868    -0.08000
C1532       C  0.89986438  0.62959749  0.05036094    -0.05400
C1533       C  0.91290979  0.63977511  0.00352261     0.00600
C1534       C  0.89934147  0.62215672  0.95938064    -0.07900
C1535       C  0.91316875  0.63152314  0.90806988     0.62500
H1536       H  0.86102240  0.58227985  0.92994391     0.13200
H1537       H  0.91057824  0.64341903  0.08362207     0.13200
C1538       C  0.85783618  0.59451978  0.10529920     0.62700
F1539       F  0.89981856  0.60845423  0.87244037    -0.22400
F1540       F  0.94273128  0.64022528  0.91065221    -0.19800
F1541       F  0.91028942  0.65494679  0.89211533    -0.19400
F1542       F  0.85528999  0.56792498  0.11890260    -0.19500
F1543       F  0.83010471  0.59136726  0.10298688    -0.19800
F1544       F  0.87388301  0.61576348  0.14259928    -0.22500
C1545       C  0.74038370  0.88518791  0.50637298    -0.05300
C1546       C  0.76759379  0.91173286  0.50929841     0.00600
C1547       C  0.79388119  0.91056631  0.51312103    -0.08000
C1548       C  0.79176476  0.88238424  0.51329559    -0.05400
C1549       C  0.76431074  0.85584138  0.51142391     0.00600
C1550       C  0.73809143  0.85724726  0.50752799    -0.07900
C1551       C  0.70758177  0.82949810  0.50379115     0.62500
H1552       H  0.72055931  0.88656222  0.50340648     0.13200
H1553       H  0.81148687  0.88084685  0.51629405     0.13200
C1554       C  0.82367846  0.93872872  0.51961581     0.62700
F1555       F  0.68602552  0.83619737  0.49178083    -0.22400
F1556       F  0.70028270  0.81562662  0.54938724    -0.19800
F1557       F  0.70707816  0.81002092  0.46671057    -0.19400
F1558       F  0.82318650  0.95535600  0.56080078    -0.19500
F1559       F  0.83024921  0.95542438  0.47709884    -0.19800
F1560       F  0.84599862  0.93249250  0.52736969    -0.22500
C1561       C  0.71832410  0.59306037  0.46656227    -0.05300
C1562       C  0.72313656  0.58384763  0.51287993     0.00600
C1563       C  0.72391425  0.59971971  0.55770364    -0.08000
C1564       C  0.72355045  0.62633464  0.55388587    -0.05400
C1565       C  0.72139572  0.63702634  0.50727604     0.00600
C1566       C  0.71710341  0.61936233  0.46286408    -0.07900
C1567       C  0.71242180  0.62860454  0.41168829     0.62500
H1568       H  0.71689288  0.58017139  0.43283646     0.13200
H1569       H  0.72585771  0.63959375  0.58762768     0.13200
C1570       C  0.72472652  0.58864453  0.60953190     0.62700
F1571       F  0.70989503  0.60867095  0.37361301    -0.21800
F1572       F  0.73594663  0.65627169  0.40078807    -0.19800
F1573       F  0.68670824  0.62973604  0.41176962    -0.19400
F1574       F  0.75243715  0.59308828  0.61978185    -0.19500
F1575       F  0.70406030  0.55865072  0.61169157    -0.19800
F1576       F  0.71822699  0.60349768  0.64685151    -0.22500
C1577       C  0.59267022  0.71514882  0.46131582    -0.05300
C1578       C  0.58225872  0.72189035  0.50557045     0.00600
C1579       C  0.59659169  0.72405721  0.55198103    -0.08000
C1580       C  0.62295205  0.72327432  0.55141499    -0.05400
C1581       C  0.63507305  0.71946569  0.50655653     0.00600
C1582       C  0.61875417  0.71362270  0.46085095    -0.07900
C1583       C  0.62917488  0.70705553  0.41134148     0.62500
H1584       H  0.58096814  0.71259813  0.42642325     0.13200
H1585       H  0.63490886  0.72668990  0.58638111     0.13200
C1586       C  0.58433643  0.72712727  0.60222935     0.62700
F1587       F  0.61014881  0.70257386  0.37184328    -0.22400
F1588       F  0.63073977  0.68144722  0.41489648    -0.19800
F1589       F  0.65660387  0.73066719  0.39993514    -0.19400
F1590       F  0.55427530  0.70745932  0.60329102    -0.19500
F1591       F  0.58989073  0.75589632  0.60977492    -0.19800
F1592       F  0.59705077  0.72078483  0.64186478    -0.22500
C1593       C  0.86712980  0.76778744  0.46416749    -0.05300
C1594       C  0.85797695  0.77542797  0.50885406     0.00600
C1595       C  0.87649119  0.78428540  0.55215371    -0.08000
C1596       C  0.90281275  0.78326720  0.55008270    -0.05400
C1597       C  0.91143116  0.77448129  0.50583013     0.00600
C1598       C  0.89360899  0.76718091  0.46182043    -0.07900
C1599       C  0.90219029  0.75814451  0.41282324     0.62500
H1600       H  0.85274886  0.76123165  0.43141922     0.13200
H1601       H  0.91671038  0.78893755  0.58330626     0.13200
C1602       C  0.86867344  0.79531588  0.59989434     0.62700
F1603       F  0.88040241  0.74885770  0.37618067    -0.22400
F1604       F  0.90741298  0.73501475  0.42023878    -0.19800
F1605       F  0.92736782  0.78234754  0.39536965    -0.19400
F1606       F  0.84364491  0.77241325  0.62065206    -0.19500
F1607       F  0.86357667  0.81812451  0.58879598    -0.19800
F1608       F  0.89117122  0.80614341  0.63550817    -0.22500
C1609       C  0.75051417  0.77226371  0.73506960    -0.05300
C1610       C  0.75015740  0.74832085  0.70837971     0.00600
C1611       C  0.75012408  0.72519581  0.73556961    -0.08000
C1612       C  0.75027849  0.72700060  0.78847562    -0.05400
C1613       C  0.75094565  0.75107007  0.81473096     0.00600
C1614       C  0.75097477  0.77410666  0.78793726    -0.07900
C1615       C  0.75044088  0.79994015  0.81505102     0.62500
H1616       H  0.75055137  0.78975005  0.71403714     0.13200
H1617       H  0.75008604  0.70961194  0.81007992     0.13200
C1618       C  0.74924408  0.69834300  0.70951168     0.62700
F1619       F  0.74792375  0.81851299  0.78185081    -0.22400
F1620       F  0.77618770  0.81672566  0.84269890    -0.19800
F1621       F  0.72666969  0.78919447  0.84700718    -0.19400
F1622       F  0.77537667  0.70716431  0.68461735    -0.19500
F1623       F  0.72589962  0.68501234  0.67555009    -0.19800
F1624       F  0.74568964  0.67712350  0.74332776    -0.22500
C1625       C  0.74085812  0.76575255  0.23521992    -0.05300
C1626       C  0.74401726  0.74384062  0.20819962     0.00600
C1627       C  0.74675931  0.72217309  0.23539405    -0.08000
C1628       C  0.74768578  0.72435772  0.28836125    -0.05400
C1629       C  0.74572326  0.74697889  0.31469051     0.00600
C1630       C  0.74137738  0.76751710  0.28807475    -0.07900
C1631       C  0.73651434  0.79066128  0.31553941     0.62500
H1632       H  0.73834775  0.78194414  0.21457917     0.13200
H1633       H  0.75021993  0.70846349  0.30992539     0.13200
C1634       C  0.74796731  0.69636758  0.20947946     0.62700
F1635       F  0.72929716  0.80620233  0.28275546    -0.22400
F1636       F  0.76187513  0.81086023  0.34158723    -0.19800
F1637       F  0.71366653  0.77688762  0.34907039    -0.19400
F1638       F  0.77428775  0.70682279  0.18439851    -0.19500
F1639       F  0.72462549  0.68155688  0.17577860    -0.19800
F1640       F  0.74609653  0.67588850  0.24346522    -0.22500
C1641       C  0.77584155  0.87168980  0.97005568    -0.05300
C1642       C  0.77387996  0.85972180  0.01743571     0.00600
C1643       C  0.77497447  0.87645326  0.06132892    -0.08000
C1644       C  0.77536144  0.90348072  0.05588384    -0.05400
C1645       C  0.77460285  0.91405735  0.00827813     0.00600
C1646       C  0.77620130  0.89864770  0.96460651    -0.07900
C1647       C  0.77826611  0.91046034  0.91236297     0.62500
H1648       H  0.77547319  0.85890504  0.93687095     0.13200
H1649       H  0.77476422  0.91581840  0.08896510     0.13200
C1650       C  0.77588739  0.86604065  0.11364725     0.62700
F1651       F  0.78611877  0.89572176  0.87700849    -0.22400
F1652       F  0.79941667  0.94037927  0.91219019    -0.19800
F1653       F  0.75133190  0.90668818  0.89793345    -0.19400
F1654       F  0.79665702  0.85723385  0.11572756    -0.19500
F1655       F  0.74855811  0.84242133  0.12537624    -0.19800
F1656       F  0.78345006  0.88848861  0.14988086    -0.22500
C1657       C  0.71415090  0.62232261  0.04555560    -0.05300
C1658       C  0.71860535  0.63657435  0.99985483     0.00600
C1659       C  0.72185369  0.62304217  0.95517772    -0.08000
C1660       C  0.72236745  0.59636589  0.95864552    -0.05400
C1661       C  0.71982269  0.58302195  0.00503356     0.00600
C1662       C  0.71462755  0.59569504  0.04914689    -0.07900
C1663       C  0.71163429  0.58254977  0.10045214     0.62500
H1664       H  0.71157852  0.63309968  0.07908215     0.13200
H1665       H  0.72591132  0.58625263  0.92519469     0.13200
C1666       C  0.72645050  0.63752079  0.90464994     0.62700
F1667       F  0.68673324  0.55456956  0.10103989    -0.22400
F1668       F  0.70907325  0.59982728  0.13849293    -0.19800
F1669       F  0.73630218  0.58058004  0.11082076    -0.19400
F1670       F  0.75093847  0.66584156  0.90713798    -0.19500
F1671       F  0.70192232  0.63930234  0.89201779    -0.19800
F1672       F  0.73078676  0.62145286  0.86656006    -0.22500
C1673       C  0.60074169  0.73146514  0.95105463    -0.05300
C1674       C  0.58448845  0.72774308  0.99503867     0.00600
C1675       C  0.59436326  0.72185833  0.04065216    -0.08000
C1676       C  0.62082592  0.72117468  0.04065124    -0.05400
C1677       C  0.63755416  0.72598529  0.99706725     0.00600
C1678       C  0.62718042  0.73076638  0.95117365    -0.07900
C1679       C  0.64476216  0.73687644  0.90313351     0.62500
H1680       H  0.59291022  0.73580810  0.91656494     0.13200
H1681       H  0.62922434  0.71766177  0.07528360     0.13200
C1682       C  0.57808679  0.71781060  0.08981323     0.62700
F1683       F  0.63185840  0.74328951  0.86390830    -0.22400
F1684       F  0.64661003  0.71216321  0.88859322    -0.19800
F1685       F  0.67282031  0.76099975  0.91107276    -0.19400
F1686       F  0.55059045  0.69238611  0.08623339    -0.19500
F1687       F  0.57498580  0.74226764  0.10032852    -0.19800
F1688       F  0.59295716  0.71482854  0.12997465    -0.22500
C1689       C  0.86874351  0.76834914  0.05903990    -0.05300
C1690       C  0.85744307  0.77236729  0.01393816     0.00600
C1691       C  0.87444918  0.77816807  0.96957945    -0.08000
C1692       C  0.90154359  0.77872712  0.97191808    -0.05400
C1693       C  0.91233755  0.77381395  0.01661021     0.00600
C1694       C  0.89589041  0.76896077  0.06125767    -0.07900
C1695       C  0.90613182  0.76289467  0.11047104     0.62500
H1696       H  0.85567881  0.76400730  0.09262502     0.13200
H1697       H  0.91432308  0.78221525  0.93817361     0.13200
C1698       C  0.86355688  0.78218523  0.91922256     0.62700
F1699       F  0.88591405  0.75670364  0.14838547    -0.22400
F1700       F  0.93245569  0.78757023  0.12591291    -0.19800
F1701       F  0.91007092  0.73867052  0.10407565    -0.19400
F1702       F  0.86164925  0.80771771  0.92129612    -0.19500
F1703       F  0.83615663  0.75780576  0.90762258    -0.19800
F1704       F  0.88235205  0.78492094  0.88050932    -0.22500
loop_ 
_geom_bond_atom_site_label_1 
_geom_bond_atom_site_label_2 
_geom_bond_distance 
_geom_bond_site_symmetry_2 
_ccdc_geom_bond_type 
O1           C17   1.275       .  A
O1           Zn7   2.020       .  S
C2           O18   1.273       .  A
C2           O15   1.274       .  A
C2          C348   1.475       .  S
O3           C16   1.276       .  A
O3          Cd10   2.088       .  S
O4           C22   1.274   1_554  A
O4          Cd13   2.065       .  S
O5           C19   1.278   1_556  A
O5           Cd9   2.092       .  S
O6           C17   1.276   1_556  A
O6           Cd9   2.086       .  S
Zn7          O18   2.015       .  S
Zn7          O20   2.007       .  S
Zn7          O12   1.941   1_554  S
O8           C19   1.272       .  A
O8          Cd13   2.061       .  S
Cd9          O11   2.079       .  S
Cd9          O12   2.011       .  S
Cd10         O14   2.067       .  S
Cd10         O23   2.088       .  S
Cd10         O12   2.012       .  S
O11          C21   1.275       .  A
O12         Cd13   1.995   1_556  S
Cd13         O15   2.070       .  S
O14          C21   1.275       .  A
C16          O20   1.273   1_556  A
C16         C380   1.483       .  S
C17         C412   1.489       .  S
C19         C364   1.483       .  S
C21         C335   1.483       .  S
C22          O23   1.276       .  A
C22         C399   1.479       .  S
O24          C40   1.275       .  A
O24         Zn30   2.020       .  S
C25          O41   1.273       .  A
C25          O38   1.275       .  A
C25         C332   1.486       .  S
O26          C39   1.274       .  A
O26         Cd33   2.071       .  S
O27          C45   1.276       .  A
O27         Cd36   2.074       .  S
O28          C42   1.275       .  A
O28         Cd32   2.083       .  S
O29          C40   1.277       .  A
O29         Cd32   2.088       .  S
Zn30         O41   2.022       .  S
Zn30         O43   2.007       .  S
Zn30         O35   1.940       .  S
O31          C42   1.272       .  A
O31         Cd36   2.053       .  S
Cd32         O34   2.076       .  S
Cd32         O35   2.011       .  S
Cd33         O37   2.068       .  S
Cd33         O46   2.086       .  S
Cd33         O35   2.008       .  S
O34          C44   1.275       .  A
O35         Cd36   1.989       .  S
Cd36         O38   2.070       .  S
O37          C44   1.275       .  A
C39          O43   1.273       .  A
C39         C287   1.466       .  S
C40         C316   1.488       .  S
C42         C271   1.473       .  S
C44         C351   1.487       .  S
C45          O46   1.274       .  A
C45         C303   1.497       .  S
O47          C63   1.275       .  A
O47         Zn53   2.023       .  S
C48          O64   1.273   1_655  A
C48         O913   1.274       .  A
C48         C204   1.482       .  S
O49          C62   1.279   1_554  A
O49         Cd56   2.098       .  S
O50          C68   1.274   1_556  A
O50         Cd59   2.067       .  S
O51          C65   1.278   1_554  A
O51        Cd907   2.094       .  S
O52          C63   1.274   1_554  A
O52         Cd55   2.078       .  S
Zn53         O64   2.017       .  S
Zn53         O66   2.015       .  S
Zn53         O58   1.943       .  S
O54          C65   1.272       .  A
O54         Cd59   2.056       .  S
Cd55        O903   2.078   1_455  S
Cd55        O909   2.067       .  S
Cd55         O58   2.009   1_554  S
Cd56        O912   2.081       .  S
Cd56        O921   2.095   1_455  S
Cd56         O58   2.012   1_554  S
O57          C67   1.276       .  A
O57        Cd907   2.086       .  S
O58        Cd911   1.996   1_455  S
Cd59         O61   2.064       .  S
Cd59        O910   1.995       .  S
O60          C67   1.276       .  A
O60        Cd908   2.070       .  S
O61         C900   1.274       .  A
C62          O66   1.274       .  A
C62         C236   1.491       .  S
C63         C396   1.495       .  S
C65         C255   1.484       .  S
C67         C220   1.488       .  S
C68          O69   1.276       .  A
C68         C415   1.489       .  S
O69        Cd908   2.092       .  S
O70          C86   1.271       .  A
O70         Zn76   2.010       .  S
C71          O87   1.273       .  A
C71          O84   1.276       .  A
C71         C319   1.497       .  S
O72          C85   1.278       .  A
O72         Cd79   2.102       .  S
O73          C91   1.276       .  A
O73        Cd934   2.077       .  S
O74          C88   1.275       .  A
O74         Cd78   2.060       .  S
O75         C938   1.274   1_455  A
O75         Cd78   2.063       .  S
Zn76         O87   2.008       .  S
Zn76         O89   1.988       .  S
Zn76         O81   1.937       .  S
O77          C88   1.278       .  A
O77        Cd934   2.101       .  S
Cd78         O80   2.061       .  S
Cd78        O933   1.994   1_455  S
Cd79        O935   2.117       .  S
Cd79        O944   2.077       .  S
Cd79         O81   2.021       .  S
O80          C90   1.271       .  A
O81         Cd82   2.016       .  S
O81        Cd930   1.991       .  S
Cd82         O84   2.099       .  S
Cd82        O925   2.079       .  S
Cd82        O929   2.097       .  S
O83          C90   1.280       .  A
O83        Cd931   2.109       .  S
C85          O89   1.272       .  A
C85         C188   1.487       .  S
C86         O927   1.273       .  A
C86         C207   1.483       .  S
C88         C172   1.498       .  S
C90         C300   1.494       .  S
C91          O92   1.278       .  A
C91         C223   1.488       .  S
O92        Cd931   2.090       .  S
O93         C109   1.276   1_556  A
O93         Zn99   2.026       .  S
C94         O110   1.275   1_565  A
C94         O533   1.271       .  A
C94         C143   1.492   1_565  S
O95         C108   1.276       .  A
O95        Cd102   2.093       .  S
O96         C114   1.275   1_556  A
O96        Cd105   2.067       .  S
O97         C111   1.278   1_554  A
O97        Cd527   2.098       .  S
O98         C109   1.274       .  A
O98        Cd101   2.082       .  S
Zn99        O110   2.018       .  S
Zn99        O112   2.009       .  S
Zn99        O104   1.939   1_556  S
O100        C111   1.273       .  A
O100       Cd105   2.063       .  S
Cd101       O103   2.071       .  S
Cd101       O523   2.082   1_545  S
Cd101       O104   2.012       .  S
Cd102       O106   2.076       .  S
Cd102       O541   2.097   1_545  S
Cd102       O104   2.014       .  S
O103        C539   1.276       .  A
O104       Cd531   1.994   1_544  S
Cd105       O107   2.062       .  S
Cd105       O530   1.993   1_556  S
O106        C539   1.276       .  A
O107        C520   1.271       .  A
C108        O112   1.274   1_554  A
C108        C383   1.490       .  S
C109        C252   1.488       .  S
C111        C367   1.488       .  S
C113        O529   1.279       .  A
C113        O532   1.273       .  A
C113        C582   1.495       .  S
C114        O115   1.276       .  A
C114        C239   1.489       .  S
O115       Cd528   2.090       .  S
O116        C132   1.273       .  A
O116       Zn122   2.008       .  S
C117        O133   1.275       .  A
C117        O556   1.271       .  A
C117        C566   1.495       .  S
O118        C131   1.278       .  A
O118       Cd125   2.093       .  S
O119        C137   1.273       .  A
O119       Cd128   2.061       .  S
O120        C134   1.277       .  A
O120       Cd550   2.086   1_545  S
O121        C132   1.275       .  A
O121       Cd124   2.084       .  S
Zn122       O133   2.016       .  S
Zn122       O135   1.997       .  S
Zn122       O127   1.936       .  S
O123        C134   1.274       .  A
O123       Cd128   2.066       .  S
Cd124       O546   2.084       .  S
Cd124       O552   2.064       .  S
Cd124       O127   2.009       .  S
Cd125       O555   2.073       .  S
Cd125       O564   2.090       .  S
Cd125       O127   2.014       .  S
O126        C136   1.275       .  A
O126       Cd550   2.077       .  S
O127       Cd554   1.989       .  S
Cd128       O130   2.071       .  S
Cd128       O553   1.989   1_545  S
O129        C136   1.274       .  A
O129       Cd551   2.063       .  S
O130        C543   1.273       .  A
C131        O135   1.269       .  A
C131        C175   1.494       .  S
C132        C268   1.474       .  S
C134        C191   1.486       .  S
C136        C159   1.477       .  S
C137        O138   1.272       .  A
C137        C284   1.466       .  S
O138       Cd551   2.066   1_545  S
C139        C140   1.406   1_565  A
C139        C144   1.409       .  A
C139        H146   1.083       .  S
C140        C543   1.492       .  S
C140        C567   1.421       .  A
C141        C142   1.405       .  A
C141        C566   1.424       .  A
C141        C148   1.521       .  S
C142        C569   1.406       .  A
C142        H147   1.082       .  S
C143        C144   1.423   1_545  A
C143        C568   1.405       .  A
C144        C145   1.522       .  S
C145        F149   1.385       .  S
C145        F151   1.383       .  S
C145        F576   1.384       .  S
C148        F152   1.383       .  S
C148        F154   1.385       .  S
C148        F579   1.382       .  S
F150        C571   1.384       .  S
F153        C574   1.381       .  S
C155        C156   1.406   1_565  A
C155        C160   1.408       .  A
C155        H162   1.083       .  S
C156        C539   1.480       .  S
C156        C157   1.417       .  A
C157        C158   1.405       .  A
C157        C164   1.519       .  S
C158        C159   1.403   1_545  A
C158        H163   1.083       .  S
C159        C160   1.416       .  A
C160        C161   1.518       .  S
C161        F167   1.383       .  S
C161        F591   1.385       .  S
C161        F592   1.383       .  S
C164        F169   1.384       .  S
C164        F170   1.385       .  S
C164        F594   1.382       .  S
F165        C587   1.385       .  S
F166        C587   1.384       .  S
F168        C590   1.383       .  S
C171        C172   1.407       .  A
C171        C176   1.407       .  A
C171        H178   1.083       .  S
C172        C173   1.422       .  A
C173        C174   1.411       .  A
C173        C180   1.515       .  S
C174        C175   1.405       .  A
C174        H179   1.082       .  S
C175        C176   1.423       .  A
C176        C177   1.522       .  S
C177        F181   1.385       .  S
C177        F182   1.384       .  S
C177        F183   1.383       .  S
C180        F184   1.383       .  S
C180        F185   1.379       .  S
C180        F186   1.385       .  S
C187        C188   1.405       .  A
C187        C192   1.404       .  A
C187        H194   1.084       .  S
C188        C189   1.419       .  A
C189        C190   1.411       .  A
C189        C196   1.518       .  S
C190        C191   1.406       .  A
C190        H195   1.083       .  S
C191        C192   1.418       .  A
C192        C193   1.518       .  S
C193        F197   1.385       .  S
C193        F198   1.382       .  S
C193        F199   1.383       .  S
C196        F200   1.382       .  S
C196        F201   1.384       .  S
C196        F202   1.385       .  S
C203        C208   1.407       .  A
C203       C1056   1.405       .  A
C203        H210   1.083       .  S
C204        C205   1.418   1_655  A
C204       C1055   1.405       .  A
C205        C206   1.405       .  A
C205        C212   1.521       .  S
C206       C1059   1.405   1_455  A
C206        H211   1.083       .  S
C207        C208   1.420       .  A
C207       C1058   1.404       .  A
C208        C209   1.521       .  S
C209        F213   1.385       .  S
C209        F214   1.383       .  S
C209        F215   1.384       .  S
C212        F216   1.384       .  S
C212        F217   1.382       .  S
C212        F218   1.385       .  S
C219        C220   1.405       .  A
C219        C224   1.407       .  A
C219        H226   1.083       .  S
C220       C1073   1.419       .  A
C221        C222   1.411       .  A
C221       C1072   1.420   1_655  A
C221        C228   1.521       .  S
C222        C223   1.405   1_655  A
C222        H227   1.083       .  S
C223       C1076   1.420       .  A
C224       C1075   1.419       .  A
C224        C225   1.518       .  S
C225        F229   1.385       .  S
C225        F230   1.382       .  S
C225        F231   1.383       .  S
C228        F232   1.382       .  S
C228        F233   1.384       .  S
C228        F234   1.385       .  S
C235        C236   1.407   1_554  A
C235        C240   1.413       .  A
C235        H242   1.083       .  S
C236        C237   1.420       .  A
C237        C238   1.405       .  A
C237        C244   1.518       .  S
C238        C239   1.404   1_556  A
C238        H243   1.085       .  S
C239        C240   1.421       .  A
C240        C241   1.519       .  S
C241        F245   1.385       .  S
C241        F246   1.383       .  S
C241        F247   1.383       .  S
C244        F248   1.384       .  S
C244        F249   1.383       .  S
C244        F250   1.385       .  S
C251        C252   1.405   1_556  A
C251        C256   1.407       .  A
C251        H258   1.083       .  S
C252        C253   1.421       .  A
C253        C254   1.410       .  A
C253        C260   1.519       .  S
C254        C255   1.404   1_554  A
C254        H259   1.083       .  S
C255        C256   1.418       .  A
C256        C257   1.520       .  S
C257        F261   1.385       .  S
C257        F262   1.384       .  S
C257        F263   1.382       .  S
C260        F264   1.382       .  S
C260        F265   1.383       .  S
C260        F266   1.385       .  S
C267        C268   1.401       .  A
C267        C272   1.402       .  A
C267        H274   1.084       .  S
C268        C269   1.415       .  A
C269        C270   1.411       .  A
C269        C276   1.515       .  S
C270        C271   1.403       .  A
C270        H275   1.083       .  S
C271        C272   1.417       .  A
C272        C273   1.522       .  S
C273        F277   1.385       .  S
C273        F278   1.382       .  S
C273        F279   1.384       .  S
C276        F280   1.383       .  S
C276        F281   1.382       .  S
C276        F282   1.384       .  S
C283        C284   1.400       .  A
C283        C288   1.402       .  A
C283        H290   1.084       .  S
C284        C285   1.413       .  A
C285        C286   1.407       .  A
C285        C292   1.516       .  S
C286        C287   1.402       .  A
C286        H291   1.084       .  S
C287        C288   1.414       .  A
C288        C289   1.518       .  S
C289        F293   1.385       .  S
C289        F294   1.383       .  S
C289        F295   1.383       .  S
C292        F296   1.382       .  S
C292        F297   1.383       .  S
C292        F298   1.385       .  S
C299        C300   1.405       .  A
C299        C304   1.413       .  A
C299        H306   1.083       .  S
C300        C301   1.422       .  A
C301        C302   1.407       .  A
C301        C308   1.521       .  S
C302        C303   1.406       .  A
C302        H307   1.083       .  S
C303        C304   1.425       .  A
C304        C305   1.520       .  S
C305        F309   1.385       .  S
C305        F310   1.383       .  S
C305        F311   1.383       .  S
C308        F312   1.384       .  S
C308        F313   1.382       .  S
C308        F314   1.385       .  S
C315        C316   1.404       .  A
C315        C320   1.412       .  A
C315        H322   1.083       .  S
C316        C317   1.419       .  A
C317        C318   1.406       .  A
C317        C324   1.520       .  S
C318        C319   1.408       .  A
C318        H323   1.085       .  S
C319        C320   1.423       .  A
C320        C321   1.517       .  S
C321        F325   1.385       .  S
C321        F326   1.381       .  S
C321        F327   1.383       .  S
C324        F328   1.383       .  S
C324        F329   1.382       .  S
C324        F330   1.385       .  S
C331        C332   1.405       .  A
C331        C336   1.407       .  A
C331        H338   1.083       .  S
C332        C333   1.420       .  A
C333        C334   1.408       .  A
C333        C340   1.520       .  S
C334        C335   1.404       .  A
C334        H339   1.083       .  S
C335        C336   1.418       .  A
C336        C337   1.520       .  S
C337        F341   1.385       .  S
C337        F342   1.383       .  S
C337        F343   1.384       .  S
C340        F344   1.383       .  S
C340        F345   1.383       .  S
C340        F346   1.385       .  S
C347        C348   1.400       .  A
C347        C352   1.408       .  A
C347        H354   1.084       .  S
C348        C349   1.414       .  A
C349        C350   1.406       .  A
C349        C356   1.520       .  S
C350        C351   1.407       .  A
C350        H355   1.083       .  S
C351        C352   1.423       .  A
C352        C353   1.520       .  S
C353        F357   1.385       .  S
C353        F358   1.383       .  S
C353        F359   1.383       .  S
C356        F360   1.382       .  S
C356        F361   1.384       .  S
C356        F362   1.385       .  S
C363        C364   1.402   1_556  A
C363        C368   1.407       .  A
C363        H370   1.084       .  S
C364        C365   1.419       .  A
C365        C366   1.410       .  A
C365        C372   1.519       .  S
C366        C367   1.405   1_554  A
C366        H371   1.083       .  S
C367        C368   1.421       .  A
C368        C369   1.519       .  S
C369        F373   1.385       .  S
C369        F374   1.384       .  S
C369        F375   1.383       .  S
C372        F376   1.384       .  S
C372        F377   1.382       .  S
C372        F378   1.385       .  S
C379        C380   1.405   1_554  A
C379        C384   1.410       .  A
C379        H386   1.083       .  S
C380        C381   1.416       .  A
C381        C382   1.407       .  A
C381        C388   1.520       .  S
C382        C383   1.407   1_556  A
C382        H387   1.083       .  S
C383        C384   1.420       .  A
C384        C385   1.518       .  S
C385        F389   1.383       .  S
C385        F390   1.385       .  S
C385        F391   1.382       .  S
C388        F392   1.384       .  S
C388        F393   1.383       .  S
C388        F394   1.385       .  S
C395        C396   1.410       .  A
C395        C400   1.410       .  A
C395        H402   1.083       .  S
C396        C397   1.425   1_556  A
C397        C398   1.407       .  A
C397        C404   1.520       .  S
C398        C399   1.399   1_554  A
C398        H403   1.083       .  S
C399        C400   1.415       .  A
C400        C401   1.520       .  S
C401        F405   1.385       .  S
C401        F406   1.382       .  S
C401        F407   1.384       .  S
C404        F408   1.383       .  S
C404        F409   1.384       .  S
C404        F410   1.385       .  S
C411        C412   1.406       .  A
C411        C416   1.411       .  A
C411        H418   1.083       .  S
C412        C413   1.420   1_554  A
C413        C414   1.409       .  A
C413        C420   1.521       .  S
C414        C415   1.405   1_556  A
C414        H419   1.083       .  S
C415        C416   1.420       .  A
C416        C417   1.520       .  S
C417        F421   1.385       .  S
C417        F422   1.382       .  S
C417        F423   1.384       .  S
C420        F424   1.382       .  S
C420        F425   1.384       .  S
C420        F426   1.385       .  S
O427        C443   1.277       .  A
O427       Zn433   2.034       .  S
C428        O444   1.273       .  A
C428        O441   1.274       .  A
C428        C774   1.480       .  S
O429        C442   1.277       .  A
O429       Cd436   2.092       .  S
O430        C448   1.275   1_554  A
O430       Cd439   2.072       .  S
O431        C445   1.276   1_556  A
O431       Cd435   2.081       .  S
O432        C443   1.275   1_556  A
O432       Cd435   2.085       .  S
Zn433       O444   2.021       .  S
Zn433       O446   2.007       .  S
Zn433       O438   1.947       .  S
O434        C445   1.274       .  A
O434       Cd439   2.067       .  S
Cd435       O437   2.071       .  S
Cd435       O438   2.009   1_556  S
Cd436       O440   2.078       .  S
Cd436       O449   2.105       .  S
Cd436       O438   2.016   1_556  S
O437        C447   1.275       .  A
O438       Cd439   1.997       .  S
Cd439       O441   2.064       .  S
O440        C447   1.276       .  A
C442        O446   1.273   1_556  A
C442        C806   1.479       .  S
C443        C838   1.495       .  S
C445        C790   1.480       .  S
C447        C761   1.479       .  S
C448        O449   1.278       .  A
C448        C825   1.493       .  S
O450        C466   1.274       .  A
O450       Zn456   2.021       .  S
C451        O467   1.274       .  A
C451        O464   1.273       .  A
C451        C758   1.490       .  S
O452        C465   1.277       .  A
O452       Cd459   2.094       .  S
O453        C471   1.274       .  A
O453       Cd462   2.061       .  S
O454        C468   1.280       .  A
O454       Cd458   2.112       .  S
O455        C466   1.280       .  A
O455       Cd458   2.113       .  S
Zn456       O467   2.034       .  S
Zn456       O469   2.013       .  S
Zn456       O461   1.942       .  S
O457        C468   1.270       .  A
O457       Cd462   2.045       .  S
Cd458       O460   2.076       .  S
Cd458       O461   2.022       .  S
Cd459       O463   2.075       .  S
Cd459       O472   2.108       .  S
Cd459       O461   2.022       .  S
O460        C470   1.275       .  A
O461       Cd462   1.988       .  S
Cd462       O464   2.060       .  S
O463        C470   1.276       .  A
C465        O469   1.275       .  A
C465        C713   1.485       .  S
C466        C742   1.496       .  S
C468        C697   1.486       .  S
C470        C777   1.482       .  S
C471        O472   1.278       .  A
C471        C729   1.496       .  S
O473        C489   1.273   1_556  A
O473       Zn479   2.017       .  S
C474        O490   1.271       .  A
C474       O1339   1.275   1_455  A
C474        C630   1.478       .  S
O475        C488   1.279       .  A
O475       Cd482   2.104   1_455  S
O476        C494   1.274   1_556  A
O476       Cd485   2.063       .  S
O477        C491   1.277   1_554  A
O477      Cd1333   2.086       .  S
O478        C489   1.278       .  A
O478       Cd481   2.103   1_455  S
Zn479       O490   2.005       .  S
Zn479       O492   2.005       .  S
Zn479       O484   1.939   1_456  S
O480        C491   1.273       .  A
O480       Cd485   2.067       .  S
Cd481      O1329   2.090       .  S
Cd481      O1335   2.064   1_655  S
Cd481       O484   2.013       .  S
Cd482      O1338   2.075   1_655  S
Cd482      O1347   2.111       .  S
Cd482       O484   2.015       .  S
O483        C493   1.276       .  A
O483      Cd1333   2.068       .  S
O484      Cd1337   1.998   1_554  S
Cd485       O487   2.066       .  S
Cd485      O1336   1.994       .  S
O486        C493   1.276       .  A
O486      Cd1334   2.083       .  S
O487       C1326   1.274       .  A
C488        O492   1.273   1_554  A
C488        C662   1.488       .  S
C489        C822   1.491       .  S
C491        C681   1.492       .  S
C493        C646   1.492       .  S
C494        O495   1.278       .  A
C494        C841   1.489       .  S
O495      Cd1334   2.101       .  S
O496        C512   1.274       .  A
O496       Zn502   2.027       .  S
C497        O513   1.276       .  A
C497        O510   1.278       .  A
C497        C745   1.501       .  S
O498        C511   1.277       .  A
O498       Cd505   2.097       .  S
O499        C517   1.271       .  A
O499      Cd1360   2.059       .  S
O500        C514   1.275       .  A
O500       Cd504   2.061       .  S
O501       C1364   1.273       .  A
O501       Cd504   2.062       .  S
Zn502       O513   2.026       .  S
Zn502       O515   2.016       .  S
Zn502       O507   1.944       .  S
O503        C514   1.274       .  A
O503      Cd1360   2.074   1_455  S
Cd504       O506   2.074       .  S
Cd504      O1359   1.995   1_455  S
Cd505      O1361   2.107       .  S
Cd505      O1370   2.080       .  S
Cd505       O507   2.018       .  S
O506        C516   1.273       .  A
O507      Cd1356   1.989       .  S
O507       Cd508   2.019       .  S
Cd508      O1351   2.078       .  S
Cd508      O1355   2.100       .  S
Cd508       O510   2.107       .  S
O509        C516   1.278       .  A
O509      Cd1357   2.103   1_455  S
C511        O515   1.276       .  A
C511        C614   1.492       .  S
C512       O1353   1.272       .  A
C512        C633   1.483       .  S
C514        C598   1.479       .  S
C516        C726   1.493       .  S
C517        O518   1.278       .  A
C517        C649   1.501   1_655  S
O518      Cd1357   2.079       .  S
O519        C535   1.274       .  A
O519       Zn525   2.008       .  S
C520        O536   1.274       .  A
C520        C569   1.492       .  S
O521        C534   1.276       .  A
O521       Cd528   2.098       .  S
O522        C540   1.275   1_556  A
O522       Cd531   2.066       .  S
O523        C537   1.276   1_554  A
O524        C535   1.277   1_554  A
O524       Cd527   2.099       .  S
Zn525       O536   2.006       .  S
Zn525       O538   2.002       .  S
Zn525       O530   1.932   1_556  S
O526        C537   1.273       .  A
O526       Cd531   2.063       .  S
Cd527       O529   2.081       .  S
Cd527       O530   2.016       .  S
Cd528       O532   2.063       .  S
Cd528       O530   2.010       .  S
Cd531       O533   2.065       .  S
C534        O538   1.273   1_554  A
C534        C809   1.495       .  S
C535        C678   1.495       .  S
C537        C793   1.485       .  S
C540        O541   1.277       .  A
C540        C665   1.492       .  S
O542        C558   1.275       .  A
O542       Zn548   2.010       .  S
C543        O559   1.275   1_545  A
O544        C557   1.275       .  A
O544       Cd551   2.074       .  S
O545        C563   1.273       .  A
O545       Cd554   2.063       .  S
O546        C560   1.276       .  A
O547        C558   1.276       .  A
O547       Cd550   2.093       .  S
Zn548       O559   2.026       .  S
Zn548       O561   2.000       .  S
Zn548       O553   1.930       .  S
O549        C560   1.276       .  A
O549       Cd554   2.076       .  S
Cd550       O553   2.015       .  S
Cd551       O553   2.008       .  S
O552        C562   1.272       .  A
Cd554       O556   2.064       .  S
O555        C562   1.278       .  A
C557        O561   1.271       .  A
C557        C601   1.482       .  S
C558        C694   1.486       .  S
C560        C617   1.485       .  S
C562        C585   1.493       .  S
C563        O564   1.276       .  A
C563        C710   1.482       .  S
C565        C566   1.408       .  A
C565        C570   1.407       .  A
C565        H572   1.082       .  S
C567        C568   1.406       .  A
C567        C574   1.519       .  S
C568        H573   1.082       .  S
C569        C570   1.422       .  A
C570        C571   1.522       .  S
C571        F575   1.385       .  S
C571        F577   1.383       .  S
C574        F578   1.383       .  S
C574        F580   1.385       .  S
C581        C582   1.407       .  A
C581        C586   1.408       .  A
C581        H588   1.082       .  S
C582        C583   1.424       .  A
C583        C584   1.405       .  A
C583        C590   1.521       .  S
C584        C585   1.405       .  A
C584        H589   1.082       .  S
C585        C586   1.423       .  A
C586        C587   1.522       .  S
C587        F593   1.383       .  S
C590        F595   1.381       .  S
C590        F596   1.385       .  S
C597        C598   1.402       .  A
C597        C602   1.404       .  A
C597        H604   1.084       .  S
C598        C599   1.419       .  A
C599        C600   1.408       .  A
C599        C606   1.519       .  S
C600        C601   1.404       .  A
C600        H605   1.083       .  S
C601        C602   1.420       .  A
C602        C603   1.520       .  S
C603        F607   1.385       .  S
C603        F608   1.384       .  S
C603        F609   1.382       .  S
C606        F610   1.383       .  S
C606        F611   1.384       .  S
C606        F612   1.385       .  S
C613        C614   1.405       .  A
C613        C618   1.404       .  A
C613        H620   1.085       .  S
C614        C615   1.422       .  A
C615        C616   1.413       .  A
C615        C622   1.517       .  S
C616        C617   1.405       .  A
C616        H621   1.083       .  S
C617        C618   1.416       .  A
C618        C619   1.517       .  S
C619        F623   1.385       .  S
C619        F624   1.383       .  S
C619        F625   1.382       .  S
C622        F626   1.383       .  S
C622        F627   1.382       .  S
C622        F628   1.385       .  S
C629       C1482   1.408       .  A
C629        C634   1.408       .  A
C629        H636   1.083       .  S
C630       C1481   1.403   1_455  A
C630        C631   1.419       .  A
C631        C632   1.406       .  A
C631        C638   1.521       .  S
C632       C1485   1.404       .  A
C632        H637   1.083       .  S
C633       C1484   1.404       .  A
C633        C634   1.417       .  A
C634        C635   1.521       .  S
C635        F639   1.385       .  S
C635        F640   1.382       .  S
C635        F641   1.384       .  S
C638        F642   1.384       .  S
C638        F643   1.383       .  S
C638        F644   1.385       .  S
C645        C646   1.406       .  A
C645        C650   1.406       .  A
C645        H652   1.082       .  S
C646       C1499   1.421       .  A
C647       C1498   1.426       .  A
C647        C648   1.409       .  A
C647        C654   1.522       .  S
C648        C649   1.407       .  A
C648        H653   1.081       .  S
C649       C1502   1.426   1_455  A
C650       C1501   1.420       .  A
C650        C651   1.519       .  S
C651        F655   1.385       .  S
C651        F656   1.381       .  S
C651        F657   1.383       .  S
C654        F658   1.382       .  S
C654        F659   1.383   1_455  S
C654        F660   1.385       .  S
C661        C662   1.405       .  A
C661        C666   1.414       .  A
C661        H668   1.083       .  S
C662        C663   1.419   1_554  A
C663        C664   1.404       .  A
C663        C670   1.519       .  S
C664        C665   1.405   1_556  A
C664        H669   1.085       .  S
C665        C666   1.422       .  A
C666        C667   1.518       .  S
C667        F671   1.385       .  S
C667        F672   1.383       .  S
C667        F673   1.383       .  S
C670        F674   1.383       .  S
C670        F675   1.383       .  S
C670        F676   1.385       .  S
C677        C678   1.407       .  A
C677        C682   1.408       .  A
C677        H684   1.083       .  S
C678        C679   1.421   1_556  A
C679        C680   1.411       .  A
C679        C686   1.519       .  S
C680        C681   1.406   1_554  A
C680        H685   1.082       .  S
C681        C682   1.421       .  A
C682        C683   1.522       .  S
C683        F687   1.385       .  S
C683        F688   1.384       .  S
C683        F689   1.383       .  S
C686        F690   1.383       .  S
C686        F691   1.383       .  S
C686        F692   1.385       .  S
C693        C694   1.402       .  A
C693        C698   1.402       .  A
C693        H700   1.084       .  S
C694        C695   1.419       .  A
C695        C696   1.416       .  A
C695        C702   1.516       .  S
C696        C697   1.406       .  A
C696        H701   1.083       .  S
C697        C698   1.422       .  A
C698        C699   1.524       .  S
C699        F703   1.385       .  S
C699        F704   1.383       .  S
C699        F705   1.384       .  S
C702        F706   1.384       .  S
C702        F707   1.382       .  S
C702        F708   1.384       .  S
C709        C710   1.404       .  A
C709        C714   1.412       .  A
C709        H716   1.083       .  S
C710        C711   1.417       .  A
C711        C712   1.405       .  A
C711        C718   1.519       .  S
C712        C713   1.403       .  A
C712        H717   1.084       .  S
C713        C714   1.420       .  A
C714        C715   1.518       .  S
C715        F719   1.385       .  S
C715        F720   1.383       .  S
C715        F721   1.383       .  S
C718        F722   1.381       .  S
C718        F723   1.384       .  S
C718        F724   1.385       .  S
C725        C726   1.406       .  A
C725        C730   1.414       .  A
C725        H732   1.083       .  S
C726        C727   1.420       .  A
C727        C728   1.409       .  A
C727        C734   1.520       .  S
C728        C729   1.406       .  A
C728        H733   1.083       .  S
C729        C730   1.422       .  A
C730        C731   1.519       .  S
C731        F735   1.385       .  S
C731        F736   1.383       .  S
C731        F737   1.384       .  S
C734        F738   1.383       .  S
C734        F739   1.382       .  S
C734        F740   1.385       .  S
C741        C742   1.406       .  A
C741        C746   1.417       .  A
C741        H748   1.083       .  S
C742        C743   1.420       .  A
C743        C744   1.409       .  A
C743        C750   1.520       .  S
C744        C745   1.407       .  A
C744        H749   1.084       .  S
C745        C746   1.423       .  A
C746        C747   1.518       .  S
C747        F751   1.384       .  S
C747        F752   1.384       .  S
C747        F753   1.383       .  S
C750        F754   1.383       .  S
C750        F755   1.384       .  S
C750        F756   1.385       .  S
C757        C758   1.407       .  A
C757        C762   1.406       .  A
C757        H764   1.083       .  S
C758        C759   1.422       .  A
C759        C760   1.410       .  A
C759        C766   1.520       .  S
C760        C761   1.402       .  A
C760        H765   1.083       .  S
C761        C762   1.415       .  A
C762        C763   1.520       .  S
C763        F767   1.385       .  S
C763        F768   1.382       .  S
C763        F769   1.384       .  S
C766        F770   1.383       .  S
C766        F771   1.384       .  S
C766        F772   1.385       .  S
C773        C774   1.402       .  A
C773        C778   1.405       .  A
C773        H780   1.083       .  S
C774        C775   1.419       .  A
C775        C776   1.409       .  A
C775        C782   1.521       .  S
C776        C777   1.405       .  A
C776        H781   1.083       .  S
C777        C778   1.419       .  A
C778        C779   1.520       .  S
C779        F783   1.385       .  S
C779        F784   1.382       .  S
C779        F785   1.384       .  S
C782        F786   1.382       .  S
C782        F787   1.384       .  S
C782        F788   1.385       .  S
C789        C790   1.403   1_556  A
C789        C794   1.407       .  A
C789        H796   1.084       .  S
C790        C791   1.417       .  A
C791        C792   1.407       .  A
C791        C798   1.518       .  S
C792        C793   1.405   1_554  A
C792        H797   1.083       .  S
C793        C794   1.421       .  A
C794        C795   1.520       .  S
C795        F799   1.385       .  S
C795        F800   1.384       .  S
C795        F801   1.382       .  S
C798        F802   1.384       .  S
C798        F803   1.382       .  S
C798        F804   1.385       .  S
C805        C806   1.403   1_554  A
C805        C810   1.410       .  A
C805        H812   1.083       .  S
C806        C807   1.414       .  A
C807        C808   1.407       .  A
C807        C814   1.519       .  S
C808        C809   1.409   1_556  A
C808        H813   1.083       .  S
C809        C810   1.422       .  A
C810        C811   1.517       .  S
C811        F815   1.383       .  S
C811        F816   1.385       .  S
C811        F817   1.382       .  S
C814        F818   1.384       .  S
C814        F819   1.382       .  S
C814        F820   1.385       .  S
C821        C822   1.406   1_556  A
C821        C826   1.413       .  A
C821        H828   1.083       .  S
C822        C823   1.418       .  A
C823        C824   1.411       .  A
C823        C830   1.518       .  S
C824        C825   1.406   1_554  A
C824        H829   1.083       .  S
C825        C826   1.420       .  A
C826        C827   1.519       .  S
C827        F831   1.385       .  S
C827        F832   1.382       .  S
C827        F833   1.383       .  S
C830        F834   1.382       .  S
C830        F835   1.384       .  S
C830        F836   1.385       .  S
C837        C838   1.408       .  A
C837        C842   1.411       .  A
C837        H844   1.083       .  S
C838        C839   1.423   1_554  A
C839        C840   1.410       .  A
C839        C846   1.521       .  S
C840        C841   1.404   1_556  A
C840        H845   1.083       .  S
C841        C842   1.418       .  A
C842        C843   1.519       .  S
C843        F847   1.385       .  S
C843        F848   1.383       .  S
C843        F849   1.383       .  S
C846        F850   1.383       .  S
C846        F851   1.383       .  S
C846        F852   1.385       .  S
O853        C869   1.273       .  A
O853       Zn859   2.007       .  S
C854        O870   1.271       .  A
C854        O867   1.274       .  A
C854       C1200   1.478       .  S
O855        C868   1.276       .  A
O855       Cd862   2.088       .  S
O856        C874   1.275   1_554  A
O856       Cd865   2.071       .  S
O857        C871   1.279   1_556  A
O857       Cd861   2.098       .  S
O858        C869   1.277   1_556  A
O858       Cd861   2.100       .  S
Zn859       O870   2.007       .  S
Zn859       O872   1.989       .  S
Zn859       O864   1.936       .  S
O860        C871   1.272       .  A
O860       Cd865   2.054       .  S
Cd861       O863   2.089       .  S
Cd861       O864   2.013   1_556  S
Cd862       O866   2.073       .  S
Cd862       O875   2.104       .  S
Cd862       O864   2.016   1_556  S
O863        C873   1.278       .  A
O864       Cd865   1.993       .  S
Cd865       O867   2.067       .  S
O866        C873   1.275       .  A
C868        O872   1.272   1_556  A
C868       C1232   1.485   1_556  S
C869       C1264   1.496       .  S
C871       C1216   1.484       .  S
C873       C1187   1.479       .  S
C874        O875   1.278       .  A
C874       C1251   1.491       .  S
O876        C892   1.275       .  A
O876       Zn882   2.033       .  S
C877        O893   1.274       .  A
C877        O890   1.277       .  A
C877       C1184   1.497       .  S
O878        C891   1.275       .  A
O878       Cd885   2.078       .  S
O879        C897   1.277       .  A
O879       Cd888   2.090       .  S
O880        C894   1.277       .  A
O880       Cd884   2.089       .  S
O881        C892   1.278       .  A
O881       Cd884   2.108       .  S
Zn882       O893   2.029       .  S
Zn882       O895   2.005       .  S
Zn882       O887   1.946       .  S
O883        C894   1.274       .  A
O883       Cd888   2.058       .  S
Cd884       O886   2.075       .  S
Cd884       O887   2.019       .  S
Cd885       O889   2.066       .  S
Cd885       O898   2.099       .  S
Cd885       O887   2.013       .  S
O886        C896   1.274       .  A
O887       Cd888   1.996       .  S
Cd888       O890   2.075       .  S
O889        C896   1.275       .  A
C891        O895   1.273       .  A
C891       C1139   1.469       .  S
C892       C1168   1.490       .  S
C894       C1123   1.475       .  S
C896       C1203   1.480       .  S
C897        O898   1.276       .  A
C897       C1155   1.499       .  S
O899        C915   1.276       .  A
O899       Zn905   2.035       .  S
C900        O916   1.273       .  A
C900       C1056   1.483       .  S
O901        C914   1.276       .  A
O901       Cd908   2.082       .  S
O902        C920   1.275   1_556  A
O902       Cd911   2.069       .  S
O903        C917   1.275   1_554  A
O904        C915   1.278   1_554  A
O904       Cd907   2.098       .  S
Zn905       O916   2.015       .  S
Zn905       O918   2.007       .  S
Zn905       O910   1.946       .  S
O906        C917   1.273       .  A
O906       Cd911   2.064       .  S
Cd907       O910   2.012   1_554  S
Cd908       O910   2.014   1_554  S
O909        C919   1.273       .  A
Cd911       O913   2.066       .  S
O912        C919   1.278       .  A
C914        O918   1.273   1_554  A
C914       C1088   1.476       .  S
C915       C1248   1.499       .  S
C917       C1107   1.481       .  S
C919       C1072   1.483       .  S
C920        O921   1.277       .  A
C920       C1267   1.484       .  S
O922        C938   1.272       .  A
O922       Zn928   2.016       .  S
C923        O939   1.274       .  A
C923        O936   1.278       .  A
C923       C1171   1.489       .  S
O924        C937   1.276       .  A
O924       Cd931   2.086   1_655  S
O925        C943   1.276       .  A
O926        C940   1.274       .  A
O926       Cd930   2.054       .  S
O927       Cd930   2.063       .  S
Zn928       O939   2.028       .  S
Zn928       O941   1.995       .  S
Zn928       O933   1.945       .  S
O929        C940   1.278       .  A
Cd930       O932   2.064       .  S
Cd931       O933   2.023   1_455  S
O932        C942   1.273       .  A
O933       Cd934   2.012   1_655  S
Cd934       O936   2.104   1_455  S
O935        C942   1.280       .  A
C937        O941   1.272       .  A
C937       C1040   1.472       .  S
C938       C1059   1.484       .  S
C940       C1024   1.488       .  S
C942       C1152   1.492       .  S
C943        O944   1.277       .  A
C943       C1075   1.484       .  S
O945        C961   1.275   1_556  A
O945       Zn951   2.011       .  S
C946        O962   1.274       .  A
C946       O1385   1.273   1_545  A
C946        C995   1.486       .  S
O947        C960   1.274       .  A
O947       Cd954   2.076       .  S
O948        C966   1.273   1_556  A
O948       Cd957   2.059       .  S
O949        C963   1.276       .  A
O949      Cd1379   2.086       .  S
O950        C961   1.275       .  A
O950       Cd953   2.084       .  S
Zn951       O962   2.019       .  S
Zn951       O964   2.015       .  S
Zn951       O956   1.938   1_556  S
O952        C963   1.274   1_556  A
O952       Cd957   2.068       .  S
Cd953      O1375   2.083   1_545  S
Cd953       O955   2.068       .  S
Cd953       O956   2.012       .  S
Cd954       O958   2.068       .  S
Cd954      O1393   2.083   1_545  S
Cd954       O956   2.009       .  S
O955       C1391   1.275       .  A
O956      Cd1383   1.991   1_544  S
Cd957       O959   2.068       .  S
Cd957      O1382   1.994   1_556  S
O958       C1391   1.274       .  A
O959       C1372   1.273       .  A
C960        O964   1.274   1_554  A
C960       C1235   1.479       .  S
C961       C1104   1.486       .  S
C963       C1219   1.483       .  S
C965       O1381   1.276       .  A
C965       O1384   1.275       .  A
C965       C1434   1.488       .  S
C966        O967   1.275       .  A
C966       C1091   1.474       .  S
O967      Cd1380   2.078       .  S
O968        C984   1.274       .  A
O968       Zn974   2.008       .  S
C969        O985   1.274       .  A
C969       O1408   1.272       .  A
C969       C1418   1.476       .  S
O970        C983   1.276       .  A
O970       Cd977   2.086       .  S
O971        C989   1.275       .  A
O971       Cd980   2.072       .  S
O972        C986   1.274       .  A
O972      Cd1402   2.071   1_545  S
O973        C984   1.277       .  A
O973       Cd976   2.092       .  S
Zn974       O985   2.024       .  S
Zn974       O987   2.007       .  S
Zn974       O979   1.937       .  S
O975        C986   1.275       .  A
O975       Cd980   2.075       .  S
Cd976      O1398   2.090       .  S
Cd976      O1404   2.077       .  S
Cd976       O979   2.015       .  S
Cd977      O1407   2.071       .  S
Cd977      O1416   2.081       .  S
Cd977       O979   2.015       .  S
O978        C988   1.273       .  A
O978      Cd1402   2.068       .  S
O979      Cd1406   1.989       .  S
Cd980       O982   2.075       .  S
Cd980      O1405   1.996       .  S
O981        C988   1.275       .  A
O981      Cd1403   2.064       .  S
O982       C1395   1.274       .  A
C983        O987   1.271       .  A
C983       C1027   1.487       .  S
C984       C1120   1.476       .  S
C986       C1043   1.474       .  S
C988       C1011   1.482       .  S
C989        O990   1.274       .  A
C989       C1136   1.471       .  S
O990      Cd1403   2.072   1_545  S
C991        C992   1.406   1_565  A
C991        C996   1.408       .  A
C991        H998   1.083       .  S
C992       C1395   1.490       .  S
C992       C1419   1.422       .  A
C993       C1418   1.416       .  A
C993        C994   1.404       .  A
C993       C1000   1.516       .  S
C994       C1421   1.400       .  A
C994        H999   1.083       .  S
C995       C1420   1.404       .  A
C995        C996   1.420   1_545  A
C996        C997   1.521       .  S
C997       F1001   1.385       .  S
C997       F1428   1.384       .  S
C997       F1003   1.382       .  S
C1000      F1004   1.380       .  S
C1000      F1431   1.383       .  S
C1000      F1006   1.384       .  S
F1002      C1423   1.384       .  S
F1005      C1426   1.383       .  S
C1007      C1008   1.404   1_565  A
C1007      C1012   1.407       .  A
C1007      H1014   1.083       .  S
C1008      C1391   1.481       .  S
C1008      C1009   1.418       .  A
C1009      C1010   1.404       .  A
C1009      C1016   1.518       .  S
C1010      C1011   1.404   1_545  A
C1010      H1015   1.083       .  S
C1011      C1012   1.419       .  A
C1012      C1013   1.520       .  S
C1013      F1443   1.385       .  S
C1013      F1444   1.383       .  S
C1013      F1019   1.383       .  S
C1016      F1446   1.382       .  S
C1016      F1021   1.383       .  S
C1016      F1022   1.385       .  S
F1017      C1439   1.385       .  S
F1018      C1439   1.384       .  S
F1020      C1442   1.382       .  S
C1023      C1024   1.405       .  A
C1023      C1028   1.406       .  A
C1023      H1030   1.084       .  S
C1024      C1025   1.419       .  A
C1025      C1026   1.411       .  A
C1025      C1032   1.518       .  S
C1026      C1027   1.406       .  A
C1026      H1031   1.083       .  S
C1027      C1028   1.420       .  A
C1028      C1029   1.521       .  S
C1029      F1033   1.385       .  S
C1029      F1034   1.384       .  S
C1029      F1035   1.382       .  S
C1032      F1036   1.383       .  S
C1032      F1037   1.383       .  S
C1032      F1038   1.385       .  S
C1039      C1040   1.403       .  A
C1039      C1044   1.406       .  A
C1039      H1046   1.084       .  S
C1040      C1041   1.415       .  A
C1041      C1042   1.407       .  A
C1041      C1048   1.519       .  S
C1042      C1043   1.403       .  A
C1042      H1047   1.084       .  S
C1043      C1044   1.414       .  A
C1044      C1045   1.515       .  S
C1045      F1049   1.385       .  S
C1045      F1050   1.384       .  S
C1045      F1051   1.381       .  S
C1048      F1052   1.383       .  S
C1048      F1053   1.384       .  S
C1048      F1054   1.384       .  S
C1055      C1060   1.408       .  A
C1055      H1062   1.083       .  S
C1056      C1057   1.419       .  A
C1057      C1058   1.405       .  A
C1057      C1064   1.521       .  S
C1058      H1063   1.083       .  S
C1059      C1060   1.420       .  A
C1060      C1061   1.521       .  S
C1061      F1065   1.385       .  S
C1061      F1066   1.383       .  S
C1061      F1067   1.384       .  S
C1064      F1068   1.384       .  S
C1064      F1069   1.383       .  S
C1064      F1070   1.385       .  S
C1071      C1072   1.400       .  A
C1071      C1076   1.405       .  A
C1071      H1078   1.083       .  S
C1073      C1074   1.407       .  A
C1073      C1080   1.515       .  S
C1074      C1075   1.403       .  A
C1074      H1079   1.083       .  S
C1076      C1077   1.515       .  S
C1077      F1081   1.385       .  S
C1077      F1082   1.383       .  S
C1077      F1083   1.382       .  S
C1080      F1084   1.381       .  S
C1080      F1085   1.382       .  S
C1080      F1086   1.385       .  S
C1087      C1088   1.403       .  A
C1087      C1092   1.407       .  A
C1087      H1094   1.084       .  S
C1088      C1089   1.417   1_554  A
C1089      C1090   1.405       .  A
C1089      C1096   1.519       .  S
C1090      C1091   1.402   1_556  A
C1090      H1095   1.084       .  S
C1091      C1092   1.416       .  A
C1092      C1093   1.519       .  S
C1093      F1097   1.385       .  S
C1093      F1098   1.382       .  S
C1093      F1099   1.384       .  S
C1096      F1100   1.383       .  S
C1096      F1101   1.382       .  S
C1096      F1102   1.385       .  S
C1103      C1104   1.405   1_556  A
C1103      C1108   1.404       .  A
C1103      H1110   1.084       .  S
C1104      C1105   1.421       .  A
C1105      C1106   1.410       .  A
C1105      C1112   1.519       .  S
C1106      C1107   1.404   1_554  A
C1106      H1111   1.083       .  S
C1107      C1108   1.416       .  A
C1108      C1109   1.519       .  S
C1109      F1113   1.385       .  S
C1109      F1114   1.384       .  S
C1109      F1115   1.382       .  S
C1112      F1116   1.383       .  S
C1112      F1117   1.383       .  S
C1112      F1118   1.385       .  S
C1119      C1120   1.400       .  A
C1119      C1124   1.401       .  A
C1119      H1126   1.084       .  S
C1120      C1121   1.416       .  A
C1121      C1122   1.413       .  A
C1121      C1128   1.515       .  S
C1122      C1123   1.404       .  A
C1122      H1127   1.083       .  S
C1123      C1124   1.417       .  A
C1124      C1125   1.522       .  S
C1125      F1129   1.385       .  S
C1125      F1130   1.382       .  S
C1125      F1131   1.383       .  S
C1128      F1132   1.383       .  S
C1128      F1133   1.382       .  S
C1128      F1134   1.385       .  S
C1135      C1136   1.401       .  A
C1135      C1140   1.405       .  A
C1135      H1142   1.084       .  S
C1136      C1137   1.414       .  A
C1137      C1138   1.407       .  A
C1137      C1144   1.516       .  S
C1138      C1139   1.402       .  A
C1138      H1143   1.084       .  S
C1139      C1140   1.415       .  A
C1140      C1141   1.519       .  S
C1141      F1145   1.385       .  S
C1141      F1146   1.384       .  S
C1141      F1147   1.383       .  S
C1144      F1148   1.382       .  S
C1144      F1149   1.383       .  S
C1144      F1150   1.385       .  S
C1151      C1152   1.404       .  A
C1151      C1156   1.415       .  A
C1151      H1158   1.083       .  S
C1152      C1153   1.419       .  A
C1153      C1154   1.411       .  A
C1153      C1160   1.519       .  S
C1154      C1155   1.406       .  A
C1154      H1159   1.083       .  S
C1155      C1156   1.425       .  A
C1156      C1157   1.519       .  S
C1157      F1161   1.385       .  S
C1157      F1162   1.383       .  S
C1157      F1163   1.384       .  S
C1160      F1164   1.384       .  S
C1160      F1165   1.382       .  S
C1160      F1166   1.384       .  S
C1167      C1168   1.405       .  A
C1167      C1172   1.414       .  A
C1167      H1174   1.083       .  S
C1168      C1169   1.417       .  A
C1169      C1170   1.412       .  A
C1169      C1176   1.517       .  S
C1170      C1171   1.404       .  A
C1170      H1175   1.083       .  S
C1171      C1172   1.419       .  A
C1172      C1173   1.518       .  S
C1173      F1177   1.385       .  S
C1173      F1178   1.383       .  S
C1173      F1179   1.383       .  S
C1176      F1180   1.382       .  S
C1176      F1181   1.384       .  S
C1176      F1182   1.385       .  S
C1183      C1184   1.408       .  A
C1183      C1188   1.405       .  A
C1183      H1190   1.082       .  S
C1184      C1185   1.427       .  A
C1185      C1186   1.413       .  A
C1185      C1192   1.521       .  S
C1186      C1187   1.402       .  A
C1186      H1191   1.083       .  S
C1187      C1188   1.412       .  A
C1188      C1189   1.518       .  S
C1189      F1193   1.384       .  S
C1189      F1194   1.382       .  S
C1189      F1195   1.382       .  S
C1192      F1196   1.383       .  S
C1192      F1197   1.384       .  S
C1192      F1198   1.385       .  S
C1199      C1200   1.403       .  A
C1199      C1204   1.406       .  A
C1199      H1206   1.084       .  S
C1200      C1201   1.419       .  A
C1201      C1202   1.406       .  A
C1201      C1208   1.520       .  S
C1202      C1203   1.404       .  A
C1202      H1207   1.084       .  S
C1203      C1204   1.419       .  A
C1204      C1205   1.519       .  S
C1205      F1209   1.385       .  S
C1205      F1210   1.382       .  S
C1205      F1211   1.382       .  S
C1208      F1212   1.383       .  S
C1208      F1213   1.384       .  S
C1208      F1214   1.385       .  S
C1215      C1216   1.403   1_556  A
C1215      C1220   1.407       .  A
C1215      H1222   1.083       .  S
C1216      C1217   1.421       .  A
C1217      C1218   1.409       .  A
C1217      C1224   1.520       .  S
C1218      C1219   1.403       .  A
C1218      H1223   1.083       .  S
C1219      C1220   1.418   1_554  A
C1220      C1221   1.518       .  S
C1221      F1225   1.385       .  S
C1221      F1226   1.384       .  S
C1221      F1227   1.382       .  S
C1224      F1228   1.384       .  S
C1224      F1229   1.382       .  S
C1224      F1230   1.385       .  S
C1231      C1232   1.407       .  A
C1231      C1236   1.405       .  A
C1231      H1238   1.083       .  S
C1232      C1233   1.420   1_554  A
C1233      C1234   1.408       .  A
C1233      C1240   1.519       .  S
C1234      C1235   1.403   1_556  A
C1234      H1239   1.083       .  S
C1235      C1236   1.415       .  A
C1236      C1237   1.518       .  S
C1237      F1241   1.381       .  S
C1237      F1242   1.385       .  S
C1237      F1243   1.383       .  S
C1240      F1244   1.384       .  S
C1240      F1245   1.383       .  S
C1240      F1246   1.385       .  S
C1247      C1248   1.409       .  A
C1247      C1252   1.415       .  A
C1247      H1254   1.083       .  S
C1248      C1249   1.422   1_556  A
C1249      C1250   1.408       .  A
C1249      C1256   1.516       .  S
C1250      C1251   1.401   1_554  A
C1250      H1255   1.083       .  S
C1251      C1252   1.419       .  A
C1252      C1253   1.517       .  S
C1253      F1257   1.385       .  S
C1253      F1258   1.383       .  S
C1253      F1259   1.382       .  S
C1256      F1260   1.383       .  S
C1256      F1261   1.381       .  S
C1256      F1262   1.385       .  S
C1263      C1264   1.410       .  A
C1263      C1268   1.410       .  A
C1263      H1270   1.083       .  S
C1264      C1265   1.422   1_554  A
C1265      C1266   1.411       .  A
C1265      C1272   1.519       .  S
C1266      C1267   1.403   1_556  A
C1266      H1271   1.083       .  S
C1267      C1268   1.416       .  A
C1268      C1269   1.520       .  S
C1269      F1273   1.385       .  S
C1269      F1274   1.382       .  S
C1269      F1275   1.384       .  S
C1272      F1276   1.383       .  S
C1272      F1277   1.383       .  S
C1272      F1278   1.385       .  S
O1279      C1295   1.276       .  A
O1279     Zn1285   2.035       .  S
C1280      O1296   1.273       .  A
C1280      O1293   1.276       .  A
C1280      C1626   1.494       .  S
O1281      C1294   1.275   1_556  A
O1281     Cd1288   2.080       .  S
O1282      C1300   1.275       .  A
O1282     Cd1291   2.073       .  S
O1283      C1297   1.277   1_556  A
O1283     Cd1287   2.082       .  S
O1284      C1295   1.276   1_556  A
O1284     Cd1287   2.093       .  S
Zn1285     O1296   2.024       .  S
Zn1285     O1298   2.011       .  S
Zn1285     O1290   1.943       .  S
O1286      C1297   1.274       .  A
O1286     Cd1291   2.069       .  S
Cd1287     O1289   2.075       .  S
Cd1287     O1290   2.009   1_556  S
Cd1288     O1292   2.064       .  S
Cd1288     O1301   2.089       .  S
Cd1288     O1290   2.014   1_556  S
O1289      C1299   1.275       .  A
O1290     Cd1291   2.000       .  S
Cd1291     O1293   2.070       .  S
O1292      C1299   1.274       .  A
C1294      O1298   1.275       .  A
C1294      C1658   1.479   1_554  S
C1295      C1690   1.499       .  S
C1297      C1642   1.484       .  S
C1299      C1613   1.475       .  S
C1300      O1301   1.276   1_554  A
C1300      C1677   1.486   1_554  S
O1302      C1318   1.273       .  A
O1302     Zn1308   2.014       .  S
C1303      O1319   1.272       .  A
C1303      O1316   1.274       .  A
C1303      C1610   1.488       .  S
O1304      C1317   1.273       .  A
O1304     Cd1311   2.075       .  S
O1305      C1323   1.275       .  A
O1305     Cd1314   2.073       .  S
O1306      C1320   1.279       .  A
O1306     Cd1310   2.104       .  S
O1307      C1318   1.280       .  A
O1307     Cd1310   2.109       .  S
Zn1308     O1319   2.017       .  S
Zn1308     O1321   2.010       .  S
Zn1308     O1313   1.937       .  S
O1309      C1320   1.271       .  A
O1309     Cd1314   2.047       .  S
Cd1310     O1312   2.084       .  S
Cd1310     O1313   2.020       .  S
Cd1311     O1315   2.063       .  S
Cd1311     O1324   2.089       .  S
Cd1311     O1313   2.013       .  S
O1312      C1322   1.277       .  A
O1313     Cd1314   1.991       .  S
Cd1314     O1316   2.067       .  S
O1315      C1322   1.274       .  A
C1317      O1321   1.275       .  A
C1317      C1565   1.483       .  S
C1318      C1594   1.485       .  S
C1320      C1549   1.483       .  S
C1322      C1629   1.475       .  S
C1323      O1324   1.275       .  A
C1323      C1581   1.498       .  S
O1325      C1341   1.275       .  A
O1325     Zn1331   2.026       .  S
C1326      O1342   1.273       .  A
C1326      C1482   1.489       .  S
O1327      C1340   1.277   1_554  A
O1327     Cd1334   2.089       .  S
O1328      C1346   1.274   1_556  A
O1328     Cd1337   2.071       .  S
O1329      C1343   1.277       .  A
O1330      C1341   1.273   1_554  A
O1330     Cd1333   2.075       .  S
Zn1331     O1342   2.020       .  S
Zn1331     O1344   2.002       .  S
Zn1331     O1336   1.940       .  S
O1332      C1343   1.273   1_556  A
O1332     Cd1337   2.062       .  S
Cd1333     O1336   2.004   1_554  S
Cd1334     O1336   2.017   1_554  S
O1335      C1345   1.272       .  A
Cd1337     O1339   2.066       .  S
O1338      C1345   1.278       .  A
C1340      O1344   1.272       .  A
C1340      C1514   1.485       .  S
C1341      C1674   1.491       .  S
C1343      C1533   1.481       .  S
C1345      C1498   1.500       .  S
C1346      O1347   1.279       .  A
C1346      C1693   1.493       .  S
O1348      C1364   1.274   1_655  A
O1348     Zn1354   2.018       .  S
C1349      O1365   1.275       .  A
C1349      O1362   1.276       .  A
C1349      C1597   1.489       .  S
O1350      C1363   1.276       .  A
O1350     Cd1357   2.079       .  S
O1351      C1369   1.278       .  A
O1352      C1366   1.274       .  A
O1352     Cd1356   2.053       .  S
O1353     Cd1356   2.051       .  S
Zn1354     O1365   2.040       .  S
Zn1354     O1367   2.016       .  S
Zn1354     O1359   1.945       .  S
O1355      C1366   1.277       .  A
Cd1356     O1358   2.061       .  S
Cd1357     O1359   2.015       .  S
O1358      C1368   1.272       .  A
O1359     Cd1360   2.005       .  S
Cd1360     O1362   2.090       .  S
O1361      C1368   1.279       .  A
C1363      O1367   1.275       .  A
C1363      C1466   1.479       .  S
C1364      C1485   1.478       .  S
C1366      C1450   1.490       .  S
C1368      C1578   1.493       .  S
C1369      O1370   1.277       .  A
C1369      C1501   1.490       .  S
O1371      C1387   1.274   1_556  A
O1371     Zn1377   2.012       .  S
C1372      O1388   1.272       .  A
C1372      C1421   1.473       .  S
O1373      C1386   1.275       .  A
O1373     Cd1380   2.080       .  S
O1374      C1392   1.274   1_556  A
O1374     Cd1383   2.058       .  S
O1375      C1389   1.276       .  A
O1376      C1387   1.275       .  A
O1376     Cd1379   2.079       .  S
Zn1377     O1388   2.011       .  S
Zn1377     O1390   2.016       .  S
Zn1377     O1382   1.943   1_556  S
O1378      C1389   1.274   1_556  A
O1378     Cd1383   2.068       .  S
Cd1379     O1381   2.073       .  S
Cd1379     O1382   2.008       .  S
Cd1380     O1384   2.080       .  S
Cd1380     O1382   2.009       .  S
Cd1383     O1385   2.069       .  S
C1386      O1390   1.274   1_554  A
C1386      C1661   1.489       .  S
C1387      C1530   1.480       .  S
C1389      C1645   1.484       .  S
C1392      O1393   1.275       .  A
C1392      C1517   1.487       .  S
O1394      C1410   1.274       .  A
O1394     Zn1400   2.002       .  S
C1395      O1411   1.275   1_545  A
O1396      C1409   1.276       .  A
O1396     Cd1403   2.086       .  S
O1397      C1415   1.272       .  A
O1397     Cd1406   2.056       .  S
O1398      C1412   1.277       .  A
O1399      C1410   1.275       .  A
O1399     Cd1402   2.085       .  S
Zn1400     O1411   2.022       .  S
Zn1400     O1413   2.012       .  S
Zn1400     O1405   1.928   1_565  S
O1401      C1412   1.272       .  A
O1401     Cd1406   2.061       .  S
Cd1402     O1405   2.014   1_565  S
Cd1403     O1405   2.011   1_565  S
O1404      C1414   1.275       .  A
Cd1406     O1408   2.064       .  S
O1407      C1414   1.276       .  A
C1409      O1413   1.273       .  A
C1409      C1453   1.493       .  S
C1410      C1546   1.482       .  S
C1412      C1469   1.481       .  S
C1414      C1437   1.486       .  S
C1415      O1416   1.276       .  A
C1415      C1562   1.483       .  S
C1417      C1418   1.403       .  A
C1417      C1422   1.408       .  A
C1417      H1424   1.083       .  S
C1419      C1420   1.408       .  A
C1419      C1426   1.519       .  S
C1420      H1425   1.083       .  S
C1421      C1422   1.416       .  A
C1422      C1423   1.518       .  S
C1423      F1427   1.385       .  S
C1423      F1429   1.382       .  S
C1426      F1430   1.383       .  S
C1426      F1432   1.385       .  S
C1433      C1434   1.405       .  A
C1433      C1438   1.407       .  A
C1433      H1440   1.083       .  S
C1434      C1435   1.420       .  A
C1435      C1436   1.408       .  A
C1435      C1442   1.518       .  S
C1436      C1437   1.405       .  A
C1436      H1441   1.083       .  S
C1437      C1438   1.419       .  A
C1438      C1439   1.520       .  S
C1439      F1445   1.383       .  S
C1442      F1447   1.383       .  S
C1442      F1448   1.385       .  S
C1449      C1450   1.404       .  A
C1449      C1454   1.404       .  A
C1449      H1456   1.084       .  S
C1450      C1451   1.420       .  A
C1451      C1452   1.414       .  A
C1451      C1458   1.519       .  S
C1452      C1453   1.409       .  A
C1452      H1457   1.083       .  S
C1453      C1454   1.421       .  A
C1454      C1455   1.521       .  S
C1455      F1459   1.385       .  S
C1455      F1460   1.384       .  S
C1455      F1461   1.383       .  S
C1458      F1462   1.383       .  S
C1458      F1463   1.383       .  S
C1458      F1464   1.385       .  S
C1465      C1466   1.402       .  A
C1465      C1470   1.406       .  A
C1465      H1472   1.084       .  S
C1466      C1467   1.418       .  A
C1467      C1468   1.409       .  A
C1467      C1474   1.519       .  S
C1468      C1469   1.403       .  A
C1468      H1473   1.083       .  S
C1469      C1470   1.417       .  A
C1470      C1471   1.516       .  S
C1471      F1475   1.385       .  S
C1471      F1476   1.384       .  S
C1471      F1477   1.380       .  S
C1474      F1478   1.382       .  S
C1474      F1479   1.384       .  S
C1474      F1480   1.384       .  S
C1481      C1486   1.405       .  A
C1481      H1488   1.083       .  S
C1482      C1483   1.422       .  A
C1483      C1484   1.406       .  A
C1483      C1490   1.522       .  S
C1484      H1489   1.083       .  S
C1485      C1486   1.417   1_455  A
C1486      C1487   1.520       .  S
C1487      F1491   1.385       .  S
C1487      F1492   1.382       .  S
C1487      F1493   1.384       .  S
C1490      F1494   1.383       .  S
C1490      F1495   1.383       .  S
C1490      F1496   1.385       .  S
C1497      C1498   1.406   1_655  A
C1497      C1502   1.405       .  A
C1497      H1504   1.081       .  S
C1499      C1500   1.410       .  A
C1499      C1506   1.521       .  S
C1500      C1501   1.407       .  A
C1500      H1505   1.083       .  S
C1502      C1503   1.521       .  S
C1503      F1507   1.385       .  S
C1503      F1508   1.382   1_655  S
C1503      F1509   1.380       .  S
C1506      F1510   1.382       .  S
C1506      F1511   1.384       .  S
C1506      F1512   1.385       .  S
C1513      C1514   1.405   1_554  A
C1513      C1518   1.411       .  A
C1513      H1520   1.083       .  S
C1514      C1515   1.420       .  A
C1515      C1516   1.404       .  A
C1515      C1522   1.520       .  S
C1516      C1517   1.404   1_556  A
C1516      H1521   1.084       .  S
C1517      C1518   1.421       .  A
C1518      C1519   1.519       .  S
C1519      F1523   1.385       .  S
C1519      F1524   1.383       .  S
C1519      F1525   1.384       .  S
C1522      F1526   1.384       .  S
C1522      F1527   1.383       .  S
C1522      F1528   1.385       .  S
C1529      C1530   1.404   1_556  A
C1529      C1534   1.407       .  A
C1529      H1536   1.084       .  S
C1530      C1531   1.418       .  A
C1531      C1532   1.409       .  A
C1531      C1538   1.520       .  S
C1532      C1533   1.404       .  A
C1532      H1537   1.083       .  S
C1533      C1534   1.417   1_554  A
C1534      C1535   1.518       .  S
C1535      F1539   1.385       .  S
C1535      F1540   1.384       .  S
C1535      F1541   1.382       .  S
C1538      F1542   1.382       .  S
C1538      F1543   1.384       .  S
C1538      F1544   1.384       .  S
C1545      C1546   1.400       .  A
C1545      C1550   1.400       .  A
C1545      H1552   1.084       .  S
C1546      C1547   1.418       .  A
C1547      C1548   1.415       .  A
C1547      C1554   1.517       .  S
C1548      C1549   1.406       .  A
C1548      H1553   1.083       .  S
C1549      C1550   1.422       .  A
C1550      C1551   1.524       .  S
C1551      F1555   1.385       .  S
C1551      F1556   1.383       .  S
C1551      F1557   1.383       .  S
C1554      F1558   1.384       .  S
C1554      F1559   1.382       .  S
C1554      F1560   1.385       .  S
C1561      C1562   1.405       .  A
C1561      C1566   1.410       .  A
C1561      H1568   1.083       .  S
C1562      C1563   1.418       .  A
C1563      C1564   1.403       .  A
C1563      C1570   1.520       .  S
C1564      C1565   1.403       .  A
C1564      H1569   1.084       .  S
C1565      C1566   1.421       .  A
C1566      C1567   1.520       .  S
C1567      F1571   1.385       .  S
C1567      F1572   1.383       .  S
C1567      F1573   1.383       .  S
C1570      F1574   1.382       .  S
C1570      F1575   1.384       .  S
C1570      F1576   1.385       .  S
C1577      C1578   1.405       .  A
C1577      C1582   1.414       .  A
C1577      H1584   1.083       .  S
C1578      C1579   1.421       .  A
C1579      C1580   1.407       .  A
C1579      C1586   1.521       .  S
C1580      C1581   1.406       .  A
C1580      H1585   1.083       .  S
C1581      C1582   1.424       .  A
C1582      C1583   1.519       .  S
C1583      F1587   1.385       .  S
C1583      F1588   1.383       .  S
C1583      F1589   1.383       .  S
C1586      F1590   1.384       .  S
C1586      F1591   1.382       .  S
C1586      F1592   1.385       .  S
C1593      C1594   1.401       .  A
C1593      C1598   1.410       .  A
C1593      H1600   1.083       .  S
C1594      C1595   1.418       .  A
C1595      C1596   1.413       .  A
C1595      C1602   1.517       .  S
C1596      C1597   1.405       .  A
C1596      H1601   1.083       .  S
C1597      C1598   1.419       .  A
C1598      C1599   1.515       .  S
C1599      F1603   1.385       .  S
C1599      F1604   1.384       .  S
C1599      F1605   1.380       .  S
C1602      F1606   1.382       .  S
C1602      F1607   1.384       .  S
C1602      F1608   1.385       .  S
C1609      C1610   1.408       .  A
C1609      C1614   1.406       .  A
C1609      H1616   1.083       .  S
C1610      C1611   1.423       .  A
C1611      C1612   1.408       .  A
C1611      C1618   1.521       .  S
C1612      C1613   1.401       .  A
C1612      H1617   1.083       .  S
C1613      C1614   1.414       .  A
C1614      C1615   1.520       .  S
C1615      F1619   1.385       .  S
C1615      F1620   1.382       .  S
C1615      F1621   1.383       .  S
C1618      F1622   1.383       .  S
C1618      F1623   1.384       .  S
C1618      F1624   1.385       .  S
C1625      C1626   1.409       .  A
C1625      C1630   1.406       .  A
C1625      H1632   1.083       .  S
C1626      C1627   1.426       .  A
C1627      C1628   1.409       .  A
C1627      C1634   1.521       .  S
C1628      C1629   1.400       .  A
C1628      H1633   1.083       .  S
C1629      C1630   1.412       .  A
C1630      C1631   1.519       .  S
C1631      F1635   1.385       .  S
C1631      F1636   1.382       .  S
C1631      F1637   1.384       .  S
C1634      F1638   1.383       .  S
C1634      F1639   1.384       .  S
C1634      F1640   1.385       .  S
C1641      C1642   1.404   1_556  A
C1641      C1646   1.407       .  A
C1641      H1648   1.083       .  S
C1642      C1643   1.419       .  A
C1643      C1644   1.410       .  A
C1643      C1650   1.519       .  S
C1644      C1645   1.405       .  A
C1644      H1649   1.083       .  S
C1645      C1646   1.418   1_554  A
C1646      C1647   1.519       .  S
C1647      F1651   1.385       .  S
C1647      F1652   1.384       .  S
C1647      F1653   1.382       .  S
C1650      F1654   1.384       .  S
C1650      F1655   1.382       .  S
C1650      F1656   1.385       .  S
C1657      C1658   1.401   1_554  A
C1657      C1662   1.406       .  A
C1657      H1664   1.083       .  S
C1658      C1659   1.417       .  A
C1659      C1660   1.409       .  A
C1659      C1666   1.520       .  S
C1660      C1661   1.408   1_556  A
C1660      H1665   1.083       .  S
C1661      C1662   1.421       .  A
C1662      C1663   1.518       .  S
C1663      F1667   1.383       .  S
C1663      F1668   1.385       .  S
C1663      F1669   1.382       .  S
C1666      F1670   1.384       .  S
C1666      F1671   1.383       .  S
C1666      F1672   1.385       .  S
C1673      C1674   1.406       .  A
C1673      C1678   1.409       .  A
C1673      H1680   1.083       .  S
C1674      C1675   1.423   1_556  A
C1675      C1676   1.410       .  A
C1675      C1682   1.521       .  S
C1676      C1677   1.403   1_554  A
C1676      H1681   1.083       .  S
C1677      C1678   1.418       .  A
C1678      C1679   1.519       .  S
C1679      F1683   1.385       .  S
C1679      F1684   1.382       .  S
C1679      F1685   1.383       .  S
C1682      F1686   1.383       .  S
C1682      F1687   1.384       .  S
C1682      F1688   1.385       .  S
C1689      C1690   1.408       .  A
C1689      C1694   1.413       .  A
C1689      H1696   1.083       .  S
C1690      C1691   1.423   1_554  A
C1691      C1692   1.412       .  A
C1691      C1698   1.520       .  S
C1692      C1693   1.404   1_556  A
C1692      H1697   1.083       .  S
C1693      C1694   1.419       .  A
C1694      C1695   1.519       .  S
C1695      F1699   1.385       .  S
C1695      F1700   1.382       .  S
C1695      F1701   1.384       .  S
C1698      F1702   1.383       .  S
C1698      F1703   1.384       .  S
C1698      F1704   1.385       .  S
