geometry optimzed in LAMMPS
_audit_creation_date              2020-11-30 
_audit_creation_method            'lammps2cif' 
_symmetry_space_group_name_H-M    'P1' 
_symmetry_Int_Tables_number       1 
_symmetry_cell_setting            triclinic 
loop_ 
_symmetry_equiv_pos_as_xyz 
  x,y,z 
_cell_length_a                    38.454107046537786 
_cell_length_b                    38.481162402013766 
_cell_length_c                    38.47168486710267 
_cell_angle_alpha                 89.88663849793687 
_cell_angle_beta                  89.95611682381376 
_cell_angle_gamma                 89.71795898405689 
loop_ 
_atom_site_label 
_atom_site_type_symbol 
_atom_site_fract_x 
_atom_site_fract_y 
_atom_site_fract_z 
_atom_site_charge 
C1          C  0.12984642  0.73893257  0.97136466     0.02690
C2          C  0.14641613  0.73245698  0.00293887    -0.13460
C3          C  0.12847011  0.73057052  0.03430368     0.00190
C4          C  0.09167184  0.73287116  0.03401719    -0.11990
C5          C  0.07295855  0.73877121  0.00254060     0.02680
C6          C  0.09300255  0.74274415  0.97135182    -0.11410
H7          H  0.17444069  0.72928386  0.00326304     0.08270
H8          H  0.07793577  0.72961720  0.05832942     0.05800
H9          H  0.08026337  0.74874429  0.94702538     0.05650
C10         C  0.41739224  0.61701165  0.02758357     0.02690
C11         C  0.42457518  0.63433611  0.99599447    -0.13460
C12         C  0.42233520  0.61617551  0.96447128     0.00190
C13         C  0.42615149  0.58032997  0.96449685    -0.11990
C14         C  0.42481706  0.56255289  0.99578406     0.02680
C15         C  0.41716619  0.58038432  0.02633359    -0.11410
H16         H  0.42872254  0.66178614  0.99460937     0.08270
H17         H  0.42526873  0.56599444  0.94025168     0.05800
H18         H  0.40824271  0.56505227  0.04810653     0.05650
C19         C  0.98327294  0.23563618  0.03139206     0.02690
C20         C  0.96503281  0.23209254  0.00029587    -0.13460
C21         C  0.98141286  0.22441763  0.96882031     0.00190
C22         C  0.01804260  0.22002775  0.96869807    -0.11990
C23         C  0.03869205  0.22632397  0.99892447     0.02680
C24         C  0.02017130  0.23412405  0.03034787    -0.11410
H25         H  0.93701644  0.23496119  0.00073273     0.08270
H26         H  0.02989786  0.21172610  0.94470386     0.05800
H27         H  0.03374227  0.23907043  0.05430690     0.05650
C28         C  0.71369132  0.36978457  0.96925004     0.02690
C29         C  0.71166093  0.35130913  0.00069429    -0.13460
C30         C  0.70819903  0.36932522  0.03200500     0.00190
C31         C  0.69892903  0.40430303  0.03170403    -0.11990
C32         C  0.69705334  0.42218483  0.00021483     0.02680
C33         C  0.70639107  0.40559534  0.96933288    -0.11410
H34         H  0.71726121  0.32370002  0.00131222     0.08270
H35         H  0.69595897  0.41823224  0.05602153     0.05800
H36         H  0.70935141  0.42094287  0.94589582     0.05650
C37         C  0.80021135  0.95810858  0.07813843     0.02690
C38         C  0.80615522  0.99021320  0.09369886    -0.13460
C39         C  0.81480889  0.02004383  0.07490546     0.00190
C40         C  0.81700323  0.01737664  0.03810041    -0.11990
C41         C  0.80775822  0.98624185  0.02021346     0.02680
C42         C  0.79912059  0.95673843  0.04124708    -0.11410
H43         H  0.80510887  0.99177590  0.12168708     0.08270
H44         H  0.82640111  0.03947105  0.02359670     0.05800
H45         H  0.79187006  0.93242382  0.02943896     0.05650
C46         C  0.67573988  0.02555436  0.34755420     0.02690
C47         C  0.69589494  0.99539497  0.34293953    -0.13460
C48         C  0.68121465  0.96268716  0.34911607     0.00190
C49         C  0.64766041  0.96061445  0.36275089    -0.11990
C50         C  0.62745630  0.99046286  0.36660903     0.02680
C51         C  0.64161783  0.02309479  0.35972278    -0.11410
H52         H  0.72159290  0.99722712  0.33150281     0.08270
H53         H  0.63543284  0.93542054  0.36572655     0.05800
H54         H  0.62521469  0.04608086  0.36060099     0.05650
C55         C  0.29526477  0.01391471  0.92058488     0.02690
C56         C  0.30170008  0.98231726  0.90402072    -0.13460
C57         C  0.30550408  0.95132183  0.92239362     0.00190
C58         C  0.30474619  0.95225876  0.95922728    -0.11990
C59         C  0.29826704  0.98382860  0.97760303     0.02680
C60         C  0.29270263  0.01444560  0.95739431    -0.11410
H61         H  0.30336219  0.98174071  0.87588908     0.08270
H62         H  0.30935421  0.92829317  0.97322929     0.05800
H63         H  0.28654093  0.03879397  0.97001820     0.05650
C64         C  0.43311556  0.94388057  0.64315194     0.02690
C65         C  0.41247161  0.97374632  0.64731925    -0.13460
C66         C  0.42741344  0.00674692  0.64467710     0.00190
C67         C  0.46175846  0.00955942  0.63333899    -0.11990
C68         C  0.48188842  0.97988356  0.62796993     0.02680
C69         C  0.46738300  0.94696480  0.63178726    -0.11410
H70         H  0.38600225  0.97126550  0.65667678     0.08270
H71         H  0.47450462  0.03464114  0.63359986     0.05800
H72         H  0.48381529  0.92404379  0.63006364     0.05650
C73         C  0.97596250  0.74448517  0.03304235     0.02690
C74         C  0.01291734  0.74810082  0.03235080    -0.13460
C75         C  0.03299835  0.73938012  0.00218315     0.00190
C76         C  0.01429538  0.73037687  0.97163648    -0.11990
C77         C  0.97754104  0.72948770  0.97128083     0.02680
C78         C  0.95950396  0.73440579  0.00233125    -0.11410
H79         H  0.02591580  0.75760783  0.05530415     0.08270
H80         H  0.02794526  0.72399358  0.94790589     0.05800
H81         H  0.93158390  0.73106709  0.00221137     0.05650
C82         C  0.69401595  0.62067135  0.03866725     0.02690
C83         C  0.68039789  0.58717545  0.04155170    -0.13460
C84         C  0.67448760  0.56758355  0.01165582     0.00190
C85         C  0.67836075  0.58268811  0.97882086    -0.11990
C86         C  0.69239884  0.61585942  0.97582420     0.02680
C87         C  0.69827883  0.63557952  0.00579553    -0.11410
H88         H  0.67985711  0.57442230  0.06671710     0.08270
H89         H  0.67569734  0.56678417  0.95573127     0.05800
H90         H  0.71038925  0.66088071  0.00360093     0.05650
C91         C  0.13400719  0.21920754  0.96389321     0.02690
C92         C  0.09726351  0.22226011  0.96516221    -0.13460
C93         C  0.07883389  0.22441390  0.99751004     0.00190
C94         C  0.09962094  0.22544144  0.02833433    -0.11990
C95         C  0.13640544  0.22288217  0.02703848     0.02680
C96         C  0.15258293  0.21836424  0.99490430    -0.11410
H97         H  0.08377196  0.22357633  0.94063281     0.08270
H98         H  0.08789679  0.22816159  0.05362969     0.05800
H99         H  0.18066268  0.21564372  0.99387873     0.05650
C100        C  0.39277507  0.36600746  0.96083757     0.02690
C101        C  0.41044002  0.39760293  0.96235030    -0.13460
C102        C  0.41155191  0.41583561  0.99358790     0.00190
C103        C  0.39944036  0.40078540  0.02419057    -0.11990
C104        C  0.38328277  0.36859752  0.02306496     0.02680
C105        C  0.37910518  0.35150639  0.99137581    -0.11410
H106        H  0.42000958  0.40964568  0.93873501     0.08270
H107        H  0.40062961  0.41506285  0.04844572     0.05800
H108        H  0.36507651  0.32715125  0.99050459     0.05650
C109        C  0.81404605  0.94996080  0.92599878     0.02690
C110        C  0.81124235  0.95178557  0.96259221    -0.13460
C111        C  0.80866552  0.98433302  0.98018246     0.00190
C112        C  0.80690954  0.01498508  0.95889754    -0.11990
C113        C  0.81112187  0.01362773  0.92206798     0.02680
C114        C  0.81621763  0.98091714  0.90690057    -0.11410
H115        H  0.81117361  0.92763198  0.97686950     0.08270
H116        H  0.80197466  0.03995458  0.97074948     0.05800
H117        H  0.82082595  0.97928837  0.87914656     0.05650
C118        C  0.67671933  0.01708823  0.66734374     0.02690
C119        C  0.64466060  0.01741066  0.65035525    -0.13460
C120        C  0.62887076  0.98646827  0.64071844     0.00190
C121        C  0.64588238  0.95490615  0.64579535    -0.11990
C122        C  0.67759900  0.95415539  0.66326014     0.02680
C123        C  0.69373708  0.98530516  0.67293005    -0.11410
H124        H  0.62979780  0.04138553  0.64857428     0.08270
H125        H  0.63271278  0.93079206  0.63977445     0.05800
H126        H  0.71815505  0.98458994  0.68697132     0.05650
C127        C  0.30640117  0.01599958  0.07313435     0.02690
C128        C  0.30100850  0.98478541  0.09078065    -0.13460
C129        C  0.29267189  0.95386868  0.07384429     0.00190
C130        C  0.28931412  0.95460809  0.03713395    -0.11990
C131        C  0.29783806  0.98475144  0.01739220     0.02680
C132        C  0.30649854  0.01544556  0.03621372    -0.11410
H133        H  0.30306027  0.98468971  0.11877654     0.08270
H134        H  0.28036635  0.93149900  0.02404798     0.05800
H135        H  0.31339260  0.03893276  0.02243113     0.05650
C136        C  0.42667723  0.95761418  0.34359455     0.02690
C137        C  0.46010991  0.95437480  0.35759890    -0.13460
C138        C  0.47975361  0.98387648  0.36471486     0.00190
C139        C  0.46546732  0.01685300  0.35985329    -0.11990
C140        C  0.43214002  0.02040533  0.34624585     0.02680
C141        C  0.41209147  0.99087878  0.33931215    -0.11410
H142        H  0.47246884  0.92901657  0.35908184     0.08270
H143        H  0.48163017  0.03967423  0.36294660     0.05800
H144        H  0.38663769  0.99383003  0.32756604     0.05650
C145        C  0.02088874  0.05770392  0.75783479     0.02690
C146        C  0.02194779  0.02081941  0.75971010    -0.13460
C147        C  0.05305578  0.00165649  0.75300311     0.00190
C148        C  0.08409993  0.02163269  0.74792708    -0.11990
C149        C  0.08358788  0.05844933  0.74806840     0.02680
C150        C  0.05173630  0.07560214  0.75103556    -0.11410
H151        H  0.99832671  0.00739181  0.76656697     0.08270
H152        H  0.10898097  0.00940852  0.74359318     0.05800
H153        H  0.05120271  0.10371887  0.74912712     0.05650
C154        C  0.02126675  0.32091093  0.61159955     0.02690
C155        C  0.05337055  0.31238796  0.62635750    -0.13460
C156        C  0.08380921  0.33011255  0.61641314     0.00190
C157        C  0.08113647  0.35555787  0.59049412    -0.11990
C158        C  0.05067769  0.35783991  0.57073143     0.02680
C159        C  0.01991002  0.34317590  0.58311671    -0.11410
H160        H  0.05429242  0.29205653  0.64585081     0.08270
H161        H  0.10377914  0.36987709  0.58219010     0.05800
H162        H  0.99585911  0.34625760  0.56872552     0.05650
C163        C  0.08608354  0.90624763  0.75325528     0.02690
C164        C  0.08518234  0.94276331  0.75314336    -0.13460
C165        C  0.05323547  0.96151016  0.75227948     0.00190
C166        C  0.02197344  0.94110246  0.75032508    -0.11990
C167        C  0.02280908  0.90391321  0.75191894     0.02680
C168        C  0.05523636  0.88759037  0.75451439    -0.11410
H169        H  0.10988572  0.95579614  0.75411983     0.08270
H170        H  0.99700752  0.95368667  0.74728208     0.05800
H171        H  0.05669763  0.85952135  0.75679247     0.05650
C172        C  0.02037465  0.62643044  0.62686341     0.02690
C173        C  0.05023837  0.63222166  0.64691586    -0.13460
C174        C  0.08325554  0.62981840  0.63166840     0.00190
C175        C  0.08636589  0.61863859  0.59742705    -0.11990
C176        C  0.05678594  0.61195865  0.57795994     0.02680
C177        C  0.02380742  0.61432171  0.59291696    -0.11410
H178        H  0.04767968  0.64227532  0.67310276     0.08270
H179        H  0.11142929  0.61959095  0.58447774     0.05800
H180        H  0.00087832  0.61105830  0.57687552     0.05650
C181        C  0.08431753  0.90800353  0.24836322     0.02690
C182        C  0.05161265  0.89244460  0.24536446    -0.13460
C183        C  0.02083113  0.91186651  0.24628526     0.00190
C184        C  0.02244970  0.94842474  0.24708692    -0.11990
C185        C  0.05476474  0.96626273  0.24882577     0.02680
C186        C  0.08563534  0.94503558  0.25059027    -0.11410
H187        H  0.04989438  0.86441437  0.24316984     0.08270
H188        H  0.99805865  0.96231863  0.24626470     0.05800
H189        H  0.11080492  0.95682775  0.25401460     0.05650
C190        C  0.09027228  0.63436355  0.37972765     0.02690
C191        C  0.08784145  0.62128095  0.41334948    -0.13460
C192        C  0.05688786  0.62533944  0.43154886     0.00190
C193        C  0.02801079  0.64016878  0.41568955    -0.11990
C194        C  0.02834303  0.64822727  0.38031927     0.02680
C195        C  0.05976015  0.64409126  0.36199642    -0.11410
H196        H  0.11105552  0.61255729  0.42685967     0.08270
H197        H  0.00588039  0.64705283  0.43172673     0.05800
H198        H  0.06125967  0.65117344  0.33483685     0.05650
C199        C  0.02615059  0.06416167  0.25286529     0.02690
C200        C  0.02529171  0.02727298  0.25447967    -0.13460
C201        C  0.05588294  0.00638999  0.24882225     0.00190
C202        C  0.08748864  0.02459413  0.24228482    -0.11990
C203        C  0.08900796  0.06138623  0.24325948     0.02680
C204        C  0.05824396  0.08010378  0.24829104    -0.11410
H205        H  0.00053360  0.01553778  0.26013583     0.08270
H206        H  0.11112882  0.01060439  0.23630012     0.05800
H207        H  0.05926060  0.10821204  0.24819542     0.05650
C208        C  0.08784487  0.33400459  0.37190250     0.02690
C209        C  0.05507426  0.33148374  0.35625892    -0.13460
C210        C  0.02518420  0.34084970  0.37490256     0.00190
C211        C  0.02820118  0.35629136  0.40748680    -0.11990
C212        C  0.06072179  0.35875885  0.42316682     0.02680
C213        C  0.09049071  0.34864839  0.40505725    -0.11410
H214        H  0.05253924  0.31928035  0.33102695     0.08270
H215        H  0.00494722  0.36205585  0.42243248     0.05800
H216        H  0.11519174  0.34811565  0.41864236     0.05650
C217        C  0.32113665  0.51611091  0.42153446     0.02690
C218        C  0.32061389  0.48494357  0.40329748    -0.13460
C219        C  0.31645074  0.45307185  0.41993391     0.00190
C220        C  0.31468688  0.45214984  0.45681292    -0.11990
C221        C  0.31615770  0.48326222  0.47734791     0.02680
C222        C  0.31884373  0.51532535  0.45839332    -0.11410
H223        H  0.32212340  0.48561334  0.37512818     0.08270
H224        H  0.31182058  0.42695650  0.46868949     0.05800
H225        H  0.31853326  0.54003476  0.47152866     0.05650
C226        C  0.17430121  0.44971499  0.15244619     0.02690
C227        C  0.19606276  0.47848615  0.15662128    -0.13460
C228        C  0.18192366  0.51212786  0.15522809     0.00190
C229        C  0.14718757  0.51618156  0.14489333    -0.11990
C230        C  0.12686949  0.48744577  0.13696776     0.02680
C231        C  0.14026133  0.45409370  0.14108230    -0.11410
H232        H  0.22286238  0.47446581  0.16428703     0.08270
H233        H  0.13475092  0.54149921  0.14583428     0.05800
H234        H  0.12330205  0.43177304  0.13873410     0.05650
O235        O  0.26183273  0.73959094  0.14192498    -0.86930
O236        O  0.24103724  0.69686578  0.33093899    -0.87100
O237        O  0.22486413  0.66406215  0.21740840    -0.88770
O238        O  0.19805398  0.77490729  0.23929370    -0.87520
O239        O  0.23112810  0.82305896  0.25026621    -0.87110
O240        O  0.27462704  0.63084762  0.21847728    -0.88480
O241        O  0.20396587  0.70285404  0.28465041    -0.86960
O242        O  0.21560820  0.72710366  0.17750437    -0.86550
Zr243      Zr  0.23792512  0.72316448  0.23613339     2.84310
O244        O  0.26086922  0.75554432  0.28183235    -1.08520
O245        O  0.28407981  0.70063601  0.20303574    -1.09250
C246        C  0.22908021  0.73300684  0.14743487     1.06180
C247        C  0.21132456  0.69280901  0.31571806     1.06120
C248        C  0.24190303  0.63533637  0.21324173     1.09100
C249        C  0.20170122  0.80827823  0.24396697     1.06880
H250        H  0.26347097  0.66792227  0.27808011     0.32440
O251        O  0.27587503  0.68794843  0.26956279    -1.29480
H252        H  0.25300767  0.78343660  0.19761327     0.32110
O253        O  0.26814519  0.76956836  0.21214273    -1.31150
O254        O  0.35191336  0.72306422  0.35283185    -0.86930
O255        O  0.37160010  0.76775516  0.16187801    -0.88420
O256        O  0.31974353  0.62747706  0.28911255    -0.87000
O257        O  0.27153123  0.81747164  0.31577554    -0.87050
O258        O  0.29393438  0.84034741  0.20436609    -0.86760
O259        O  0.33859222  0.65021481  0.17654717    -0.86570
O260        O  0.41490593  0.69577893  0.25650596    -0.86940
O261        O  0.38858990  0.80532641  0.27887413    -0.86400
O262        O  0.38235699  0.64766951  0.24334803    -0.87470
O263        O  0.33873919  0.83860814  0.27530045    -0.86620
O264        O  0.30627146  0.66106985  0.33650898    -0.87020
O265        O  0.33447422  0.70011469  0.14508420    -0.86740
O266        O  0.30518184  0.80544793  0.15824830    -0.86400
O267        O  0.27651677  0.76856971  0.35016925    -0.86800
O268        O  0.39778173  0.73532361  0.31737569    -0.87100
O269        O  0.40754989  0.76654145  0.20966352    -0.88440
Zr270      Zr  0.29830471  0.72037987  0.31586254     2.83100
Zr271      Zr  0.31414396  0.74737453  0.17963994     2.83500
Zr272      Zr  0.32230591  0.66623838  0.23671329     2.84090
Zr273      Zr  0.29097902  0.80257111  0.25725526     2.83360
Zr274      Zr  0.37467756  0.74642216  0.25955298     2.84220
O275        O  0.33744167  0.78070511  0.22469400    -1.09010
O276        O  0.34426667  0.69935395  0.28233558    -1.08510
C277        C  0.38509371  0.72752209  0.34736292     1.06150
C278        C  0.40108496  0.77244976  0.17726924     1.08770
C279        C  0.31370331  0.63162551  0.32223349     1.06320
C280        C  0.26821079  0.80065074  0.34468090     1.06680
C281        C  0.29881728  0.83542271  0.17124015     1.06270
C282        C  0.34146810  0.66769019  0.14783208     1.05820
C283        C  0.41128943  0.66270737  0.25080372     1.06240
C284        C  0.37115460  0.83395220  0.28239938     1.05760
H285        H  0.37206333  0.70551340  0.19974753     0.32430
O286        O  0.35266096  0.71355252  0.21356070    -1.30110
H287        H  0.33648204  0.78132260  0.31216792     0.32460
O288        O  0.32804198  0.76797294  0.29273004    -1.31490
C289        C  0.48080530  0.24487448  0.46392114     0.02690
C290        C  0.46252565  0.23777574  0.49430915    -0.13460
C291        C  0.47903763  0.23233734  0.52597917     0.00190
C292        C  0.51591421  0.23258952  0.52703056    -0.11990
C293        C  0.53636123  0.24087034  0.49703790     0.02680
C294        C  0.51755178  0.24752246  0.46553628    -0.11410
H295        H  0.43438314  0.23681733  0.49333110     0.08270
H296        H  0.52791206  0.22662493  0.55162829     0.05800
H297        H  0.53071600  0.25466284  0.44188169     0.05650
C298        C  0.21390317  0.09740783  0.46029354     0.02690
C299        C  0.22476431  0.11385786  0.49068179    -0.13460
C300        C  0.21613326  0.09993556  0.52286138     0.00190
C301        C  0.19640612  0.06965445  0.52493844    -0.11990
C302        C  0.18733965  0.05205139  0.49445039     0.02680
C303        C  0.19471998  0.06676828  0.46205594    -0.11410
H304        H  0.24052106  0.13712933  0.48926808     0.08270
H305        H  0.19170344  0.05772979  0.55006042     0.05800
H306        H  0.18855965  0.05279015  0.43841956     0.05650
O307        O  0.29589529  0.12346540  0.78667370    -0.86930
O308        O  0.34056842  0.31058402  0.81023724    -0.87100
O309        O  0.37307803  0.19395372  0.82413088    -0.88770
O310        O  0.26335184  0.22046954  0.85046182    -0.87520
O311        O  0.21582283  0.23430727  0.81715433    -0.87110
O312        O  0.40810261  0.19790949  0.77569565    -0.88480
O313        O  0.33251800  0.26423008  0.84656847    -0.86960
O314        O  0.30593161  0.15852688  0.83322886    -0.86550
Zr315      Zr  0.31458664  0.21628899  0.81109583     2.84310
O316        O  0.28269221  0.26317358  0.78920819    -1.08520
O317        O  0.33659161  0.18393274  0.76455564    -1.09250
C318        C  0.30077834  0.12849508  0.81981762     1.06180
C319        C  0.34271340  0.29530673  0.84008115     1.06120
C320        C  0.40212471  0.18981919  0.80756999     1.09100
C321        C  0.23033274  0.22682619  0.84649154     1.06880
H322        H  0.37080616  0.25818649  0.78825409     0.32440
O323        O  0.35095547  0.25015634  0.77524894    -1.29480
H324        H  0.25327569  0.17968054  0.79475822     0.32110
O325        O  0.26783315  0.19386853  0.78006093    -1.31150
O326        O  0.31321704  0.33602950  0.70125537    -0.86930
O327        O  0.26929923  0.14744812  0.67522812    -0.88420
O328        O  0.41118232  0.27118355  0.73072905    -0.87000
O329        O  0.22131517  0.30013993  0.77292208    -0.87050
O330        O  0.19611727  0.18944138  0.75295226    -0.86760
O331        O  0.38619980  0.15764973  0.71216189    -0.86570
O332        O  0.34559321  0.23917553  0.63578344    -0.86940
O333        O  0.23455405  0.26067900  0.66007027    -0.86400
O334        O  0.39274791  0.22432565  0.66922999    -0.87470
O335        O  0.20219629  0.26033172  0.70953935    -0.86620
O336        O  0.37701336  0.31709593  0.74526208    -0.87020
O337        O  0.33637555  0.12491224  0.71470155    -0.86740
O338        O  0.22956885  0.14123739  0.74138504    -0.86400
O339        O  0.27060592  0.33256853  0.77051627    -0.86800
O340        O  0.29869090  0.30264098  0.65412646    -0.87100
O341        O  0.27461069  0.19574502  0.64021450    -0.88440
Zr342      Zr  0.31855695  0.29662823  0.75256388     2.83100
Zr343      Zr  0.28943991  0.16129761  0.73394469     2.83500
Zr344      Zr  0.37258094  0.21818974  0.72848995     2.84090
Zr345      Zr  0.23616771  0.24024104  0.75752153     2.83360
Zr346      Zr  0.29393186  0.24308114  0.67500253     2.84220
O347        O  0.25813805  0.20821712  0.71083536    -1.09010
O348        O  0.34084105  0.26492532  0.70605784    -1.08510
C349        C  0.30576123  0.33201123  0.66851656     1.06150
C350        C  0.26628600  0.16403657  0.64607936     1.08770
C351        C  0.40666405  0.30429292  0.73702617     1.06320
C352        C  0.23778937  0.32919000  0.77561633     1.06680
C353        C  0.20006397  0.15622112  0.74764028     1.06270
C354        C  0.36893900  0.12898287  0.70847249     1.05820
C355        C  0.37853994  0.23237725  0.63997395     1.06240
C356        C  0.20598755  0.26601261  0.67694434     1.05760
H357        H  0.33337659  0.18226519  0.67792356     0.32430
O358        O  0.32516862  0.19584809  0.69737744    -1.30110
H359        H  0.25864727  0.29463802  0.71300270     0.32460
O360        O  0.27172826  0.27496419  0.72160920    -1.31490
C361        C  0.47870692  0.71917494  0.46915345     0.02690
C362        C  0.45995677  0.72321460  0.50007914    -0.13460
C363        C  0.47628554  0.72448022  0.53247168     0.00190
C364        C  0.51311086  0.72441779  0.53399531    -0.11990
C365        C  0.53393650  0.72138004  0.50331442     0.02680
C366        C  0.51567321  0.71740551  0.47111597    -0.11410
H367        H  0.43182339  0.72502761  0.49903907     0.08270
H368        H  0.52493820  0.72733198  0.55924285     0.05800
H369        H  0.52986307  0.71277815  0.44732905     0.05650
C370        C  0.20032600  0.85868486  0.53189787     0.02690
C371        C  0.21704130  0.84397479  0.50269569    -0.13460
C372        C  0.21153320  0.85792325  0.46951495     0.00190
C373        C  0.19181319  0.88819504  0.46572428    -0.11990
C374        C  0.17746449  0.90424341  0.49492346     0.02680
C375        C  0.17821907  0.88728680  0.52707566    -0.11410
H376        H  0.23440691  0.82191601  0.50575587     0.08270
H377        H  0.19106700  0.90133124  0.44075871     0.05800
H378        H  0.16549128  0.89927086  0.54912845     0.05650
C379        C  0.31191966  0.51319401  0.57496478     0.02690
C380        C  0.31714088  0.51325628  0.53829001    -0.13460
C381        C  0.31357434  0.48245307  0.51766146     0.00190
C382        C  0.30787803  0.45083299  0.53648286    -0.11990
C383        C  0.30385856  0.45038767  0.57313662     0.02680
C384        C  0.30408402  0.48170779  0.59130909    -0.11410
H385        H  0.32415263  0.53763327  0.52645657     0.08270
H386        H  0.30685897  0.42610925  0.52345331     0.05800
H387        H  0.29977072  0.48126125  0.61916814     0.05650
C388        C  0.17274439  0.44921765  0.83902293     0.02690
C389        C  0.18317470  0.48111752  0.82455004    -0.13460
C390        C  0.16916973  0.51232466  0.83652802     0.00190
C391        C  0.14179403  0.51202707  0.86018017    -0.11990
C392        C  0.12859426  0.48031653  0.87183979     0.02680
C393        C  0.14639912  0.44932378  0.86432328    -0.11410
H394        H  0.20250628  0.48187656  0.80405090     0.08270
H395        H  0.12845162  0.53610732  0.86645746     0.05800
H396        H  0.13695010  0.42514572  0.87507086     0.05650
O397        O  0.26292089  0.73778369  0.85928287    -0.86930
O398        O  0.23310657  0.69725785  0.67179565    -0.87100
O399        O  0.19811077  0.77799153  0.76037709    -0.88770
O400        O  0.21835826  0.66546264  0.78342373    -0.87520
O401        O  0.26600169  0.62930131  0.77864349    -0.87110
O402        O  0.23293242  0.82465012  0.74749210    -0.88480
O403        O  0.19914931  0.70344025  0.72062955    -0.86960
O404        O  0.21492947  0.72926667  0.82570580    -0.86550
Zr405      Zr  0.23514227  0.72421632  0.76632806     2.84310
O406        O  0.26903307  0.68817656  0.72969316    -1.08520
O407        O  0.26762895  0.77005317  0.78830312    -1.09250
C408        C  0.22967822  0.73252455  0.85552966     1.06180
C409        C  0.20422583  0.69442980  0.68895811     1.06120
C410        C  0.20322023  0.81090781  0.75383547     1.09100
C411        C  0.23396888  0.63576370  0.78621738     1.06880
H412        H  0.23705063  0.76278122  0.70673979     0.32440
O413        O  0.25727925  0.75483988  0.71931150    -1.29480
H414        H  0.27304425  0.68561904  0.81678055     0.32110
O415        O  0.28134596  0.69909334  0.79730386    -1.31150
O416        O  0.34324548  0.72330626  0.64328129    -0.86930
O417        O  0.37333066  0.75980525  0.83489315    -0.88420
O418        O  0.26457659  0.81413253  0.68407803    -0.87000
O419        O  0.31138821  0.62626989  0.70620212    -0.87050
O420        O  0.34046325  0.65048398  0.81835279    -0.86760
O421        O  0.29656949  0.83906212  0.79327081    -0.86570
O422        O  0.38597416  0.79796413  0.71384546    -0.86940
O423        O  0.40792071  0.68725817  0.74163336    -0.86400
O424        O  0.33834371  0.83408276  0.71847309    -0.87470
O425        O  0.37283804  0.64041549  0.75014257    -0.86620
O426        O  0.27194681  0.76772846  0.64791502    -0.87020
O427        O  0.30813243  0.80426083  0.84041093    -0.86740
O428        O  0.33648005  0.69900016  0.85305143    -0.86400
O429        O  0.30217354  0.66213856  0.65991424    -0.86800
O430        O  0.39158050  0.73259400  0.67695967    -0.87100
O431        O  0.40573896  0.76025979  0.78483886    -0.88440
Zr432      Zr  0.29194760  0.71963131  0.68289351     2.83100
Zr433      Zr  0.31363525  0.74534148  0.81902562     2.83500
Zr434      Zr  0.29047349  0.80088740  0.74111719     2.84090
Zr435      Zr  0.31524146  0.66326924  0.76023547     2.83360
Zr436      Zr  0.37104923  0.74071169  0.73653808     2.84220
O437        O  0.34766469  0.70931548  0.78273719    -1.09010
O438        O  0.32497131  0.76526239  0.70493732    -1.08510
C439        C  0.37660628  0.72713280  0.64742870     1.06150
C440        C  0.40185146  0.76463467  0.81781621     1.08770
C441        C  0.26018612  0.79830313  0.65475379     1.06320
C442        C  0.30796273  0.63186760  0.67281541     1.06680
C443        C  0.34548182  0.66747963  0.84710408     1.06270
C444        C  0.30237797  0.83411129  0.82629186     1.05820
C445        C  0.36985249  0.82718777  0.70939169     1.06240
C446        C  0.40288514  0.65396497  0.74511909     1.05760
H447        H  0.35060855  0.79639114  0.78088550     0.32430
O448        O  0.33685021  0.77726235  0.77243758    -1.30110
H449        H  0.35209723  0.68136162  0.69964509     0.32460
O450        O  0.33776241  0.69576598  0.71440160    -1.31490
C451        C  0.79175510  0.45666190  0.42442935     0.02690
C452        C  0.79264612  0.48853385  0.40727352    -0.13460
C453        C  0.79363266  0.51979220  0.42546150     0.00190
C454        C  0.79469879  0.51927219  0.46233938    -0.11990
C455        C  0.79382088  0.48732250  0.48148998     0.02680
C456        C  0.79190946  0.45608360  0.46128003    -0.11410
H457        H  0.79294641  0.48903307  0.37906807     0.08270
H458        H  0.79656499  0.54395935  0.47539313     0.05800
H459        H  0.79054449  0.43086651  0.47337405     0.05650
C460        C  0.93002888  0.52388152  0.15285231     0.02690
C461        C  0.96253324  0.52541014  0.13701437    -0.13460
C462        C  0.97943929  0.49489876  0.12722401     0.00190
C463        C  0.96204292  0.46315126  0.12856580    -0.11990
C464        C  0.93035436  0.46087665  0.14628010     0.02680
C465        C  0.91406873  0.49167058  0.15750242    -0.11410
H466        H  0.97677443  0.54968768  0.13693577     0.08270
H467        H  0.97535931  0.43974511  0.12022370     0.05800
H468        H  0.89007193  0.49052258  0.17218924     0.05650
C469        C  0.58656907  0.56296006  0.26551701     0.02690
C470        C  0.55531007  0.57963090  0.25744909    -0.13460
C471        C  0.52376309  0.56238930  0.25885049     0.00190
C472        C  0.52330810  0.52595586  0.26248732    -0.11990
C473        C  0.55469510  0.50650481  0.26716472     0.02680
C474        C  0.58600020  0.52631934  0.27104731    -0.11410
H475        H  0.55513656  0.60722470  0.25162601     0.08270
H476        H  0.49826524  0.51362636  0.26116813     0.05800
H477        H  0.61003317  0.51375568  0.27831643     0.05650
C478        C  0.58294704  0.83803835  0.12597414     0.02690
C479        C  0.55023972  0.82617345  0.13555919    -0.13460
C480        C  0.52246867  0.82846955  0.11229235     0.00190
C481        C  0.52794419  0.84313897  0.07935761    -0.11990
C482        C  0.56033749  0.85803918  0.07073546     0.02680
C483        C  0.58693210  0.85749134  0.09561751    -0.11410
H484        H  0.54715806  0.81238781  0.15997835     0.08270
H485        H  0.50739419  0.84181461  0.06015638     0.05800
H486        H  0.61176394  0.86936396  0.09040214     0.05650
O487        O  0.81095825  0.84867198  0.21422467    -0.86930
O488        O  0.76799310  0.65941260  0.18604745    -0.87100
O489        O  0.84317975  0.75211088  0.14703670    -0.88770
O490        O  0.73038237  0.77465096  0.17576935    -0.87520
O491        O  0.69690656  0.76417175  0.22406931    -0.87110
O492        O  0.88983835  0.74085392  0.18126762    -0.88480
O493        O  0.76960021  0.70899553  0.15238649    -0.86960
O494        O  0.79772047  0.81546383  0.16671362    -0.86550
Zr495      Zr  0.79095466  0.75607867  0.18700305     2.84310
O496        O  0.75787312  0.71875969  0.22281457    -1.08520
O497        O  0.83697721  0.77873142  0.21884361    -1.09250
C498        C  0.80528505  0.84476874  0.18099265     1.06180
C499        C  0.76241250  0.67683541  0.15780253     1.06120
C500        C  0.87651317  0.74669761  0.15139974     1.09100
C501        C  0.70118818  0.77497719  0.19280094     1.06880
H502        H  0.83270311  0.69662881  0.18779949     0.32440
O503        O  0.82417233  0.70937236  0.20767233    -1.29480
H504        H  0.75386194  0.80532164  0.22756056     0.32110
O505        O  0.76800788  0.78596488  0.23517741    -1.31150
O506        O  0.79541984  0.63199579  0.29452067    -0.86930
O507        O  0.83525687  0.82172033  0.32523234    -0.88420
O508        O  0.88781064  0.67468826  0.22013000    -0.87000
O509        O  0.69804469  0.69494360  0.26494639    -0.87050
O510        O  0.71758524  0.80587847  0.29060073    -0.86760
O511        O  0.90716007  0.78584895  0.24346570    -0.86570
O512        O  0.87519580  0.70850344  0.33508817    -0.86940
O513        O  0.76442659  0.72729167  0.36345475    -0.86400
O514        O  0.90756850  0.71325549  0.28566245    -0.87470
O515        O  0.71607324  0.73968196  0.33075842    -0.86620
O516        O  0.84013264  0.63889535  0.22347842    -0.87020
O517        O  0.87246544  0.83231845  0.25807022    -0.86740
O518        O  0.76480377  0.84211301  0.28559809    -0.86400
O519        O  0.73335590  0.64943916  0.25169993    -0.86800
O520        O  0.81008137  0.66451242  0.34221216    -0.87100
O521        O  0.83280815  0.77195954  0.35858412    -0.88440
Zr522      Zr  0.79115306  0.67224928  0.24378197     2.83100
Zr523      Zr  0.81454121  0.80902687  0.26622781     2.83500
Zr524      Zr  0.87024632  0.73257925  0.23978637     2.84090
Zr525      Zr  0.73485593  0.74796505  0.27073327     2.83360
Zr526      Zr  0.81477696  0.72477769  0.32269011     2.84220
O527        O  0.78132479  0.77150094  0.30194553    -1.09010
O528        O  0.83777961  0.69460873  0.27521402    -1.08510
C529        C  0.80217862  0.63545877  0.32747807     1.06150
C530        C  0.84006765  0.80411637  0.35360404     1.08770
C531        C  0.87217446  0.64526753  0.21633769     1.06320
C532        C  0.70317166  0.66215593  0.25832260     1.06680
C533        C  0.73287619  0.83559033  0.29322775     1.06270
C534        C  0.90203285  0.81873138  0.24988700     1.05820
C535        C  0.90421996  0.70669827  0.31815199     1.06240
C536        C  0.73116386  0.73254713  0.35992430     1.05760
H537        H  0.86800559  0.77093698  0.30012155     0.32430
O538        O  0.84819482  0.76244471  0.28736908    -1.30110
H539        H  0.75470302  0.68692646  0.30580486     0.32460
O540        O  0.76852924  0.70206795  0.29135930    -1.31490
C541        C  0.62960575  0.71788546  0.53783826     0.02690
C542        C  0.59272090  0.71700380  0.53663962    -0.13460
C543        C  0.57410297  0.72229731  0.50480921     0.00190
C544        C  0.59460535  0.72906335  0.47443842    -0.11990
C545        C  0.63160425  0.72838187  0.47533130     0.02680
C546        C  0.64807434  0.72230785  0.50703222    -0.11410
H547        H  0.57913946  0.71207108  0.56068937     0.08270
H548        H  0.58222367  0.73499942  0.44993797     0.05800
H549        H  0.67626095  0.72158397  0.50792995     0.05650
C550        C  0.88520101  0.87110217  0.53719542     0.02690
C551        C  0.89916625  0.90484180  0.53388322    -0.13460
C552        C  0.91530888  0.91501545  0.50242403     0.00190
C553        C  0.91747507  0.89109961  0.47534653    -0.11990
C554        C  0.89757313  0.86120752  0.47677715     0.02680
C555        C  0.88420959  0.84961170  0.50809599    -0.11410
H556        H  0.89712286  0.92295166  0.55531275     0.08270
H557        H  0.93015769  0.89803217  0.45116902     0.05800
H558        H  0.87111545  0.82473568  0.50912105     0.05650
C559        C  0.58571429  0.55831615  0.74105141     0.02690
C560        C  0.55384612  0.57564865  0.74204146    -0.13460
C561        C  0.52234228  0.55817031  0.73763133     0.00190
C562        C  0.52284816  0.52135626  0.73494293    -0.11990
C563        C  0.55451077  0.50194891  0.73673759     0.02680
C564        C  0.58608189  0.52159793  0.73840641    -0.11410
H565        H  0.55367692  0.60362025  0.74550754     0.08270
H566        H  0.49829348  0.50818667  0.73229165     0.05800
H567        H  0.61118768  0.50899649  0.73748647     0.05650
C568        C  0.52532988  0.82860810  0.87480295     0.02690
C569        C  0.52783505  0.83700153  0.91053953    -0.13460
C570        C  0.55806600  0.85277114  0.92382060     0.00190
C571        C  0.58660487  0.85745480  0.90198864    -0.11990
C572        C  0.58619994  0.84325592  0.86891860     0.02680
C573        C  0.55455344  0.83426780  0.85375691    -0.11410
H574        H  0.50676063  0.83068478  0.92811054     0.08270
H575        H  0.61090833  0.86695945  0.91250109     0.05800
H576        H  0.55411024  0.82802036  0.82640392     0.05650
C577        C  0.79931582  0.45290149  0.57697262     0.02690
C578        C  0.79709869  0.48356906  0.59592943    -0.13460
C579        C  0.79447981  0.51576010  0.57952645     0.00190
C580        C  0.79323320  0.51726955  0.54259657    -0.11990
C581        C  0.79515261  0.48638163  0.52174598     0.02680
C582        C  0.79864455  0.45425364  0.54024536    -0.11410
H583        H  0.79787981  0.48238790  0.62410826     0.08270
H584        H  0.79074391  0.54261954  0.53085022     0.05800
H585        H  0.80123196  0.42981475  0.52688070     0.05650
C586        C  0.93112865  0.51243713  0.86512476     0.02690
C587        C  0.96200158  0.51007620  0.88443078    -0.13460
C588        C  0.98055925  0.47865769  0.88536171     0.00190
C589        C  0.96510986  0.44811230  0.87338244    -0.11990
C590        C  0.93337757  0.44955918  0.85592829     0.02680
C591        C  0.91674554  0.48165433  0.85178283    -0.11410
H592        H  0.97395603  0.53328149  0.89469253     0.08270
H593        H  0.98010830  0.42416201  0.87303980     0.05800
H594        H  0.89351920  0.48275838  0.83595443     0.05650
O595        O  0.84759215  0.73847547  0.86053269    -0.86930
O596        O  0.87154711  0.69309158  0.67303018    -0.87100
O597        O  0.88427159  0.66069519  0.79184900    -0.88770
O598        O  0.91117243  0.77072896  0.76391800    -0.87520
O599        O  0.87783290  0.81853628  0.75085849    -0.87110
O600        O  0.83479813  0.62866991  0.79152214    -0.88480
O601        O  0.90681339  0.69759459  0.72100959    -0.86960
O602        O  0.89420190  0.72403035  0.82603324    -0.86550
Zr603      Zr  0.87190339  0.71884073  0.76816621     2.84310
O604        O  0.84985656  0.75081258  0.72155113    -1.08520
O605        O  0.82495470  0.69835798  0.80104499    -1.09250
C606        C  0.88037729  0.73114661  0.85556000     1.06180
C607        C  0.90061554  0.68879369  0.68942228     1.06120
C608        C  0.86710566  0.63267160  0.79866280     1.09100
C609        C  0.90720237  0.80395150  0.75803422     1.06880
H610        H  0.84781744  0.66281621  0.72703016     0.32440
O611        O  0.83507981  0.68301653  0.73486239    -1.29480
H612        H  0.85654171  0.78016423  0.80493063     0.32110
O613        O  0.84142862  0.76609597  0.79077781    -1.31150
O614        O  0.76160471  0.71919710  0.64860043    -0.86930
O615        O  0.73614086  0.77009920  0.83423212    -0.88420
O616        O  0.79103641  0.62300107  0.71617601    -0.87000
O617        O  0.83695940  0.81157291  0.68624720    -0.87050
O618        O  0.81794972  0.83718664  0.79651897    -0.86760
O619        O  0.76672703  0.65274813  0.82818173    -0.86570
O620        O  0.69625307  0.69054362  0.74550833    -0.86940
O621        O  0.72259000  0.80036860  0.72032797    -0.86400
O622        O  0.72871659  0.64286345  0.76103391    -0.87470
O623        O  0.77061418  0.83466960  0.72798324    -0.86620
O624        O  0.80544186  0.65567923  0.66821589    -0.87020
O625        O  0.77614472  0.70123667  0.86156430    -0.86740
O626        O  0.80563814  0.80419990  0.84453745    -0.86400
O627        O  0.83346080  0.76304680  0.65159879    -0.86800
O628        O  0.71467910  0.73277004  0.68262978    -0.87100
O629        O  0.70020290  0.76240166  0.78702822    -0.88440
Zr630      Zr  0.81359491  0.71514225  0.68741193     2.83100
Zr631      Zr  0.79472147  0.74603777  0.82321431     2.83500
Zr632      Zr  0.78799144  0.66286085  0.76792193     2.84090
Zr633      Zr  0.81865519  0.79798554  0.74488962     2.83360
Zr634      Zr  0.73605836  0.74156435  0.74106901     2.84220
O635        O  0.77149354  0.77718648  0.77639268    -1.09010
O636        O  0.76707350  0.69412835  0.72017318    -1.08510
C637        C  0.72854639  0.72530963  0.65308844     1.06150
C638        C  0.70663589  0.77257054  0.81804322     1.08770
C639        C  0.79750150  0.62667935  0.68301172     1.06320
C640        C  0.83994983  0.79545175  0.65705436     1.06680
C641        C  0.81365320  0.83319504  0.82985937     1.06270
C642        C  0.76471021  0.67040081  0.85696920     1.05820
C643        C  0.69973306  0.65759359  0.75264972     1.06240
C644        C  0.73906137  0.82954055  0.71819986     1.05760
H645        H  0.73739136  0.70402109  0.80261102     0.32430
O646        O  0.75733194  0.71110823  0.78913650    -1.30110
H647        H  0.77487204  0.77625808  0.68931870     0.32460
O648        O  0.78305590  0.76299119  0.70903190    -1.31490
C649        C  0.52300153  0.41015613  0.26389952     0.02690
C650        C  0.52307147  0.44685702  0.26675671    -0.13460
C651        C  0.55471925  0.46636690  0.26719227     0.00190
C652        C  0.58637703  0.44675300  0.26591667    -0.11990
C653        C  0.58640504  0.40997260  0.26413075     0.02680
C654        C  0.55475872  0.39243281  0.26245251    -0.11410
H655        H  0.49805319  0.45943880  0.26849996     0.08270
H656        H  0.61131347  0.45945872  0.26566596     0.05800
H657        H  0.55486225  0.36434779  0.26002962     0.05650
C658        C  0.58851117  0.13776049  0.12918007     0.02690
C659        C  0.55629551  0.13324441  0.14555304    -0.13460
C660        C  0.52599498  0.13297815  0.12563064     0.00190
C661        C  0.52786817  0.12686743  0.09019496    -0.11990
C662        C  0.55977957  0.12884345  0.07334697     0.02680
C663        C  0.58988958  0.13582150  0.09255241    -0.11410
H664        H  0.55396496  0.13364901  0.17346877     0.08270
H665        H  0.50413128  0.12542345  0.07504404     0.05800
H666        H  0.61395200  0.14098615  0.07885072     0.05650
O667        O  0.85216945  0.23254475  0.14361582    -0.86930
O668        O  0.87412667  0.27424196  0.33485135    -0.87100
O669        O  0.88724324  0.30898184  0.21249222    -0.88770
O670        O  0.91574430  0.19910802  0.24160242    -0.87520
O671        O  0.88191770  0.15111225  0.25144705    -0.87110
O672        O  0.84037179  0.34366162  0.22285466    -0.88480
O673        O  0.90910517  0.27270464  0.28636673    -0.86960
O674        O  0.89899004  0.24445151  0.17854275    -0.86550
Zr675      Zr  0.87623978  0.25085098  0.23706703     2.84310
O676        O  0.85295512  0.21736515  0.28204621    -1.08520
O677        O  0.82955208  0.27363846  0.20488705    -1.09250
C678        C  0.88530477  0.23799986  0.14866668     1.06180
C679        C  0.90273910  0.28035838  0.31847767     1.06120
C680        C  0.87089552  0.33843312  0.21068359     1.09100
C681        C  0.91161904  0.16577403  0.24606959     1.06880
H682        H  0.85195008  0.30520101  0.28098233     0.32440
O683        O  0.83952292  0.28526944  0.27240134    -1.29480
H684        H  0.85968311  0.19073495  0.19878958     0.32110
O685        O  0.84476572  0.20475189  0.21336827    -1.31150
O686        O  0.76476710  0.24661937  0.35660192    -0.86930
O687        O  0.74003354  0.20590315  0.16633278    -0.88420
O688        O  0.79530990  0.34524502  0.29349485    -0.87000
O689        O  0.84448054  0.15382350  0.31453611    -0.87050
O690        O  0.81901053  0.13395018  0.20434409    -0.86760
O691        O  0.77343904  0.32260048  0.18124193    -0.86570
O692        O  0.70085949  0.28111759  0.25924339    -0.86940
O693        O  0.72427330  0.17243727  0.28231795    -0.86400
O694        O  0.73398126  0.32899183  0.24738281    -0.87470
O695        O  0.77242679  0.13675645  0.27855225    -0.86620
O696        O  0.80898396  0.31070125  0.34029619    -0.87020
O697        O  0.77796228  0.27451841  0.14589630    -0.86740
O698        O  0.80693907  0.16937424  0.15868299    -0.86400
O699        O  0.84201279  0.20213040  0.34977775    -0.86800
O700        O  0.71805931  0.23800102  0.32104658    -0.87100
O701        O  0.70779492  0.20689112  0.21651748    -0.88440
Zr702      Zr  0.81750237  0.25176845  0.31861878     2.83100
Zr703      Zr  0.79869792  0.22732354  0.18098210     2.83500
Zr704      Zr  0.79301094  0.30784165  0.24051160     2.84090
Zr705      Zr  0.82180473  0.17079258  0.25799674     2.83360
Zr706      Zr  0.74071361  0.22982462  0.26320007     2.84220
O707        O  0.77557145  0.19460913  0.22677838    -1.09010
O708        O  0.77156771  0.27541206  0.28682361    -1.08510
C709        C  0.73150377  0.24282732  0.35119101     1.06150
C710        C  0.71185334  0.20055159  0.18410303     1.08770
C711        C  0.80121212  0.34037649  0.32651787     1.06320
C712        C  0.85019519  0.17015420  0.34321088     1.06680
C713        C  0.81395498  0.13927282  0.17124671     1.06270
C714        C  0.76950880  0.30623951  0.15206753     1.05820
C715        C  0.70467121  0.31432320  0.25396844     1.06240
C716        C  0.74031175  0.14327598  0.28626776     1.05760
H717        H  0.74193179  0.26984996  0.20362344     0.32430
O718        O  0.76185923  0.26170069  0.21656795    -1.30110
H719        H  0.77841394  0.19215932  0.31455010     0.32460
O720        O  0.78673356  0.20560208  0.29508829    -1.31490
C721        C  0.52412448  0.40447234  0.73553300     0.02690
C722        C  0.52484875  0.44120541  0.72960992    -0.13460
C723        C  0.55456126  0.46188621  0.73846210     0.00190
C724        C  0.58465006  0.44359431  0.74992373    -0.11990
C725        C  0.58550861  0.40704370  0.75199165     0.02680
C726        C  0.55472918  0.38865750  0.74740262    -0.11410
H727        H  0.50233186  0.45334747  0.71802619     0.08270
H728        H  0.60809719  0.45715225  0.75690395     0.05800
H729        H  0.55509289  0.36096626  0.75214650     0.05650
C730        C  0.52207827  0.12792311  0.87085045     0.02690
C731        C  0.52258123  0.12310718  0.90669897    -0.13460
C732        C  0.55388374  0.12623701  0.92464011     0.00190
C733        C  0.58430957  0.13442577  0.90647565    -0.11990
C734        C  0.58475523  0.13525571  0.86991332     0.02680
C735        C  0.55340605  0.12896717  0.85229856    -0.11410
H736        H  0.49833009  0.12091382  0.92091582     0.08270
H737        H  0.60739868  0.14105153  0.92111067     0.05800
H738        H  0.55249044  0.12855330  0.82425516     0.05650
C739        C  0.63205585  0.24035431  0.53195286     0.02690
C740        C  0.59519242  0.23950640  0.53068051    -0.13460
C741        C  0.57653166  0.24246667  0.49859101     0.00190
C742        C  0.59710305  0.24652902  0.46787633    -0.11990
C743        C  0.63396288  0.24685355  0.46886750     0.02680
C744        C  0.65061908  0.24400643  0.50096115    -0.11410
H745        H  0.58176905  0.23656750  0.55508394     0.08270
H746        H  0.58519559  0.24871543  0.44263844     0.05800
H747        H  0.67880942  0.24406054  0.50181200     0.05650
C748        C  0.91425635  0.11665247  0.46602871     0.02690
C749        C  0.93147501  0.08472912  0.46570192    -0.13460
C750        C  0.92719091  0.06178113  0.49355563     0.00190
C751        C  0.91070034  0.07376987  0.52400737    -0.11990
C752        C  0.89944997  0.10845442  0.52670223     0.02680
C753        C  0.90179299  0.12999724  0.49731763    -0.11410
H754        H  0.94383089  0.07608579  0.44195380     0.08270
H755        H  0.90579945  0.05590713  0.54524935     0.05800
H756        H  0.89108150  0.15607122  0.49774527     0.05650
O757        O  0.84885316  0.22623382  0.85738732    -0.86930
O758        O  0.87245678  0.26523325  0.66708087    -0.87100
O759        O  0.90826361  0.18699154  0.76193867    -0.88770
O760        O  0.88938901  0.30100321  0.78384441    -0.87520
O761        O  0.84244126  0.33801796  0.77891106    -0.87110
O762        O  0.87173257  0.14229407  0.74964399    -0.88480
O763        O  0.90867361  0.25778396  0.71411203    -0.86960
O764        O  0.89524472  0.23414762  0.82160566    -0.86550
Zr765      Zr  0.87331721  0.24216837  0.76311416     2.84310
O766        O  0.83927793  0.27917660  0.72750138    -1.08520
O767        O  0.83954308  0.19718679  0.78465860    -1.09250
C768        C  0.88203828  0.23020557  0.85206389     1.06180
C769        C  0.90236021  0.26654729  0.68245077     1.06120
C770        C  0.90184433  0.15400623  0.75767634     1.09100
C771        C  0.87400150  0.33097052  0.78730361     1.06880
H772        H  0.86787555  0.20204574  0.70338268     0.32440
O773        O  0.84878639  0.21134767  0.71681604    -1.29480
H774        H  0.83709397  0.27968281  0.81499320     0.32110
O775        O  0.82812284  0.26669832  0.79557835    -1.31150
O776        O  0.75951624  0.24209824  0.64583431    -0.86930
O777        O  0.73910769  0.19771707  0.83451295    -0.88420
O778        O  0.83302354  0.15128277  0.67854994    -0.87000
O779        O  0.79955679  0.34051526  0.70516587    -0.87050
O780        O  0.77676346  0.32039427  0.81841121    -0.86760
O781        O  0.81593993  0.12766708  0.79035316    -0.86570
O782        O  0.71369930  0.17111716  0.73003993    -0.86940
O783        O  0.69915453  0.28112846  0.74495990    -0.86400
O784        O  0.76111393  0.13441611  0.72682230    -0.87470
O785        O  0.73532759  0.32682729  0.75644319    -0.86620
O786        O  0.83301704  0.20159918  0.64669969    -0.87020
O787        O  0.80776878  0.16096467  0.83904615    -0.86740
O788        O  0.77400618  0.27057566  0.85144108    -0.86400
O789        O  0.80874579  0.30501414  0.65813274    -0.86800
O790        O  0.71279100  0.23293363  0.68179776    -0.87100
O791        O  0.70553623  0.22424425  0.79484472    -0.88440
Zr792      Zr  0.81316860  0.24771476  0.68242528     2.83100
Zr793      Zr  0.79633512  0.22090714  0.81959672     2.83500
Zr794      Zr  0.81471661  0.16614618  0.73876305     2.84090
Zr795      Zr  0.79427593  0.30408986  0.75963028     2.83360
Zr796      Zr  0.73606631  0.22870441  0.74024255     2.84220
O797        O  0.76243578  0.25893227  0.78496749    -1.09010
O798        O  0.77922158  0.20304091  0.70523304    -1.08510
C799        C  0.72638350  0.23750261  0.65150629     1.06150
C800        C  0.70966199  0.20193616  0.81907716     1.08770
C801        C  0.83845402  0.16902042  0.65022688     1.06320
C802        C  0.80402834  0.33500197  0.67189768     1.06680
C803        C  0.77016356  0.30363280  0.84679411     1.06270
C804        C  0.81373938  0.13151169  0.82380515     1.05820
C805        C  0.72814546  0.14127490  0.72525771     1.06240
C806        C  0.70501551  0.31369574  0.75111464     1.05760
H807        H  0.75778716  0.17107142  0.78193663     0.32430
O808        O  0.77112658  0.19036713  0.77321320    -1.30110
H809        H  0.75416267  0.28774056  0.70060408     0.32460
O810        O  0.76863226  0.27295716  0.71492753    -1.31490
O811        O  0.26708412  0.22285942  0.13909188    -0.86930
O812        O  0.23835560  0.26605172  0.32962047    -0.87100
O813        O  0.20148659  0.19029772  0.24093635    -0.88770
O814        O  0.21731133  0.29833831  0.21557622    -0.87520
O815        O  0.26388032  0.33572077  0.21822477    -0.87110
O816        O  0.23731759  0.14396728  0.25045535    -0.88480
O817        O  0.20330946  0.26083256  0.28153036    -0.86960
O818        O  0.21890730  0.23192813  0.17307119    -0.86550
Zr819      Zr  0.23844248  0.24200009  0.23303420     2.84310
O820        O  0.27209724  0.27920864  0.26836012    -1.08520
O821        O  0.27217983  0.19748664  0.20978207    -1.09250
C822        C  0.23383690  0.22603427  0.14345294     1.06180
C823        C  0.20890029  0.26852699  0.31359993     1.06120
C824        C  0.20680709  0.15745698  0.24632208     1.09100
C825        C  0.23176053  0.32816005  0.21185141     1.06880
H826        H  0.24376373  0.20302869  0.29303534     0.32440
O827        O  0.26288762  0.21196108  0.27950361    -1.29480
H828        H  0.27374321  0.27988535  0.18100680     0.32110
O829        O  0.28328628  0.26711971  0.20042813    -1.31150
O830        O  0.34975842  0.24275433  0.35247306    -0.86930
O831        O  0.37680091  0.20516006  0.16240900    -0.88420
O832        O  0.27672874  0.15060710  0.31364727    -0.87000
O833        O  0.31373919  0.34368528  0.28658806    -0.87050
O834        O  0.33494978  0.32038323  0.17750171    -0.86760
O835        O  0.29972854  0.12822531  0.20383190    -0.86570
O836        O  0.39314993  0.17213265  0.27979692    -0.86940
O837        O  0.41146068  0.28162137  0.25401978    -0.86400
O838        O  0.34602583  0.13545205  0.27808610    -0.87470
O839        O  0.37536002  0.32784056  0.24273832    -0.86620
O840        O  0.28138020  0.19813868  0.34932601    -0.87020
O841        O  0.31186020  0.16292919  0.15701886    -0.86740
O842        O  0.33310711  0.27148476  0.14328885    -0.86400
O843        O  0.30577629  0.30894389  0.33453109    -0.86800
O844        O  0.39682803  0.23579450  0.31704079    -0.87100
O845        O  0.41137970  0.20999548  0.21082255    -0.88440
Zr846      Zr  0.29753506  0.24852120  0.31467113     2.83100
Zr847      Zr  0.31760619  0.22205649  0.17816464     2.83500
Zr848      Zr  0.29617868  0.16662696  0.25586575     2.84090
Zr849      Zr  0.31656385  0.30452638  0.23575465     2.83360
Zr850      Zr  0.37534190  0.22869759  0.25830119     2.84220
O851        O  0.35121596  0.25993082  0.21226328    -1.09010
O852        O  0.33045884  0.20363796  0.29056393    -1.08510
C853        C  0.38302000  0.23926361  0.34733479     1.06150
C854        C  0.40596908  0.20213949  0.17882912     1.08770
C855        C  0.27325179  0.16620517  0.34307832     1.06320
C856        C  0.31089644  0.33890078  0.31986648     1.06680
C857        C  0.33900076  0.30392894  0.14858822     1.06270
C858        C  0.30512445  0.13311841  0.17077007     1.05820
C859        C  0.37777907  0.14299266  0.28542348     1.06240
C860        C  0.40563561  0.31456976  0.24932217     1.05760
H861        H  0.35601290  0.17134708  0.21566275     0.32430
O862        O  0.34196250  0.19043404  0.22404350    -1.30110
H863        H  0.35586319  0.28794419  0.29565914     0.32460
O864        O  0.34152808  0.27317537  0.28142002    -1.31490
C865        C  0.90001583  0.11886624  0.59140992    -0.02290
C866        C  0.88277788  0.12158134  0.55900491     0.07390
C867        C  0.85139473  0.14069879  0.55708614    -0.02400
C868        C  0.83990129  0.15953884  0.58578490    -0.02410
C869        C  0.85331849  0.15194037  0.61917137     0.07520
C870        C  0.88461044  0.13287790  0.62157171    -0.02600
Br871      Br  0.91075387  0.13348004  0.66422222    -0.01150
Br872      Br  0.94642681  0.09983993  0.59444822    -0.01220
Br873      Br  0.81367531  0.20143663  0.57580576    -0.01180
Br874      Br  0.82233361  0.14144451  0.51619148    -0.01160
C875        C  0.67859938  0.21090237  0.56815592    -0.02290
C876        C  0.65275784  0.23711099  0.56507685     0.07390
C877        C  0.64998567  0.26215538  0.59178146    -0.02400
C878        C  0.67312620  0.26141394  0.62045566    -0.02410
C879        C  0.70137324  0.23754630  0.62145319     0.07520
C880        C  0.70309555  0.21157931  0.59556763    -0.02600
Br881      Br  0.73643096  0.17427444  0.59949603    -0.01150
Br882      Br  0.67953529  0.17277678  0.53547664    -0.01220
Br883      Br  0.66512208  0.29280562  0.65880447    -0.01180
Br884      Br  0.61578841  0.29888156  0.58841250    -0.01160
C885        C  0.61578163  0.17182181  0.82413366    -0.02290
C886        C  0.61693098  0.14703970  0.85149307     0.07390
C887        C  0.64988433  0.13578791  0.86356520    -0.02400
C888        C  0.68014584  0.15436193  0.85482184    -0.02410
C889        C  0.67858972  0.18081777  0.82903963     0.07520
C890        C  0.64673899  0.18528839  0.81059740    -0.02600
Br891      Br  0.64387277  0.20611788  0.76442746    -0.01150
Br892      Br  0.57318250  0.19082289  0.80490640    -0.01220
Br893      Br  0.72294788  0.14125130  0.87805189    -0.01180
Br894      Br  0.65419552  0.09315923  0.89002146    -0.01160
C895        C  0.62117600  0.35890679  0.77970407    -0.02290
C896        C  0.61868482  0.38663768  0.75549607     0.07390
C897        C  0.64576237  0.39097434  0.73094315    -0.02400
C898        C  0.67460283  0.36820871  0.73090734    -0.02410
C899        C  0.67497486  0.33833180  0.75232401     0.07520
C900        C  0.64803592  0.33387904  0.77686592    -0.02600
Br901      Br  0.64908722  0.29478678  0.80841905    -0.01150
Br902      Br  0.58874809  0.35600927  0.81798714    -0.01220
Br903      Br  0.71352557  0.37835177  0.70109057    -0.01180
Br904      Br  0.64265030  0.42599320  0.69491709    -0.01160
C905        C  0.67709920  0.22131908  0.38259114    -0.02290
C906        C  0.70605766  0.24432090  0.38109226     0.07390
C907        C  0.70826397  0.27071453  0.40658035    -0.02400
C908        C  0.68309854  0.27316697  0.43343226    -0.02410
C909        C  0.65635584  0.24810511  0.43669527     0.07520
C910        C  0.65377150  0.22207811  0.41104258    -0.02600
Br911      Br  0.61977251  0.18546321  0.41585148    -0.01150
Br912      Br  0.66753964  0.18863730  0.34570902    -0.01220
Br913      Br  0.68447190  0.31214044  0.46502011    -0.01180
Br914      Br  0.74397989  0.30569287  0.40342490    -0.01160
C915        C  0.86717305  0.11516811  0.42178502    -0.02290
C916        C  0.89912849  0.12926518  0.43328959     0.07390
C917        C  0.91725022  0.15273927  0.41217646    -0.02400
C918        C  0.90202616  0.16423868  0.38105402    -0.02410
C919        C  0.86928559  0.15180629  0.37076401     0.07520
C920        C  0.85380469  0.12464244  0.38927771    -0.02600
Br921      Br  0.81734011  0.09771893  0.36855315    -0.01150
Br922      Br  0.84027240  0.08413199  0.45063990    -0.01220
Br923      Br  0.92723671  0.19398229  0.35027885    -0.01180
Br924      Br  0.96224725  0.16941091  0.42627162    -0.01160
C925        C  0.57550529  0.10118038  0.01701010    -0.02290
C926        C  0.56001891  0.12889158  0.03523854     0.07390
C927        C  0.54131292  0.15489683  0.01721992    -0.02400
C928        C  0.53778372  0.15301845  0.98120183    -0.02410
C929        C  0.55430633  0.12601898  0.96275540     0.07520
C930        C  0.57276162  0.09982090  0.98067890    -0.02600
Br931      Br  0.59217250  0.06085657  0.95570723    -0.01150
Br932      Br  0.59885554  0.06424051  0.04185302    -0.01220
Br933      Br  0.50970635  0.18763507  0.95796269    -0.01180
Br934      Br  0.52057809  0.19381430  0.04132009    -0.01160
C935        C  0.46737162  0.20374314  0.15922716    -0.02130
C936        C  0.43541887  0.18630211  0.16075955     0.07390
C937        C  0.43309501  0.15165413  0.14917352    -0.02400
C938        C  0.46322871  0.13310490  0.14049520    -0.02410
C939        C  0.49490995  0.15073495  0.13853923     0.07520
C940        C  0.49598820  0.18699737  0.14440497    -0.02600
Br941      Br  0.53362913  0.21524670  0.12715246    -0.01150
Br942      Br  0.47262929  0.25016002  0.17758362    -0.01220
Br943      Br  0.46119262  0.08386279  0.13103366    -0.01180
Br944      Br  0.38921890  0.12919794  0.14515952    -0.01160
C945        C  0.68300848  0.15309710  0.15053829    -0.02290
C946        C  0.68090674  0.18533801  0.16772149     0.07390
C947        C  0.64798951  0.19865096  0.17739578    -0.02400
C948        C  0.61787911  0.17963677  0.17058070    -0.02410
C949        C  0.61961235  0.15007263  0.14855309     0.07520
C950        C  0.65253552  0.13590371  0.14035924    -0.02600
Br951      Br  0.65585237  0.09063609  0.11883554    -0.01150
Br952      Br  0.72702538  0.13027320  0.14415934    -0.01220
Br953      Br  0.57719278  0.19249611  0.19736406    -0.01180
Br954      Br  0.64342776  0.24292018  0.20141202    -0.01160
C955        C  0.48357040  0.36336723  0.28743902    -0.02290
C956        C  0.49025022  0.38893054  0.26188312     0.07390
C957        C  0.46873805  0.39012294  0.23212278    -0.02400
C958        C  0.44130862  0.36593771  0.22788928    -0.02410
C959        C  0.43555474  0.33941858  0.25289434     0.07520
C960        C  0.45744649  0.33813290  0.28247142    -0.02600
Br961      Br  0.45242382  0.30175587  0.31668850    -0.01150
Br962      Br  0.50955286  0.36368495  0.33032196    -0.01220
Br963      Br  0.41352204  0.36761330  0.18612164    -0.01180
Br964      Br  0.47793759  0.42385077  0.19613653    -0.01160
C965        C  0.62736825  0.36575302  0.29057620    -0.02290
C966        C  0.61904398  0.38844710  0.26281191     0.07390
C967        C  0.63885592  0.38651532  0.23204093    -0.02400
C968        C  0.66645989  0.36221624  0.22904577    -0.02410
C969        C  0.67372220  0.33821642  0.25618264     0.07520
C970        C  0.65380059  0.34026828  0.28701076    -0.02600
Br971      Br  0.66369929  0.30942412  0.32536820    -0.01150
Br972      Br  0.60352872  0.37079812  0.33436682    -0.01220
Br973      Br  0.69356420  0.36157508  0.18695588    -0.01180
Br974      Br  0.62724875  0.41641904  0.19335691    -0.01160
C975        C  0.91283819  0.38796053  0.85688222    -0.02290
C976        C  0.92010114  0.41844053  0.83782563     0.07390
C977        C  0.91322788  0.41950419  0.80169940    -0.02400
C978        C  0.89778068  0.39097210  0.78543037    -0.02410
C979        C  0.89272521  0.35976664  0.80384495     0.07520
C980        C  0.89934070  0.35871558  0.83984961    -0.02600
Br981      Br  0.88432981  0.31959572  0.86701947    -0.01150
Br982      Br  0.91842030  0.38701041  0.90684711    -0.01220
Br983      Br  0.87961255  0.39664608  0.73915023    -0.01180
Br984      Br  0.92499767  0.45939811  0.77338434    -0.01160
C985        C  0.87969795  0.54937538  0.85088990    -0.02290
C986        C  0.91603318  0.54650208  0.85382316     0.07390
C987        C  0.93677056  0.57373665  0.84004651    -0.02400
C988        C  0.92075070  0.60372446  0.82602920    -0.02410
C989        C  0.88481932  0.60296791  0.81705145     0.07520
C990        C  0.86525703  0.57334675  0.82760936    -0.02600
Br991      Br  0.82125178  0.55987563  0.80705216    -0.01150
Br992      Br  0.84919576  0.52037862  0.87854397    -0.01220
Br993      Br  0.94967510  0.64438817  0.81965204    -0.01180
Br994      Br  0.98677860  0.56981466  0.83559134    -0.01160
C995        C  0.77273222  0.39841389  0.60166358    -0.02290
C996        C  0.80208145  0.41970683  0.59705303     0.07390
C997        C  0.83305425  0.41125150  0.61494161    -0.02400
C998        C  0.83387755  0.38321988  0.63876144    -0.02410
C999        C  0.80331503  0.36462812  0.64662115     0.07520
C1000       C  0.77387875  0.37023905  0.62526979    -0.02600
Br1001     Br  0.73706677  0.33667108  0.62464700    -0.01150
Br1002     Br  0.73060483  0.40840084  0.57628545    -0.01220
Br1003     Br  0.87785934  0.36655355  0.65577704    -0.01180
Br1004     Br  0.87461494  0.43771437  0.60613531    -0.01160
C1005       C  0.76361253  0.55850251  0.61892137    -0.02290
C1006       C  0.79465214  0.54699970  0.60285098     0.07390
C1007       C  0.82659706  0.55969496  0.61545145    -0.02400
C1008       C  0.82740244  0.58426117  0.64275163    -0.02410
C1009       C  0.79646864  0.59593822  0.65890133     0.07520
C1010       C  0.76457600  0.58222850  0.64713390    -0.02600
Br1011     Br  0.72221112  0.59554218  0.67002619    -0.01150
Br1012     Br  0.71971842  0.54136487  0.60217866    -0.01220
Br1013     Br  0.87135068  0.60073269  0.65919396    -0.01180
Br1014     Br  0.86955581  0.54233105  0.59594752    -0.01160
C1015       C  0.64606337  0.84453835  0.84404936    -0.02290
C1016       C  0.61794277  0.82555708  0.85717222     0.07390
C1017       C  0.62090281  0.78907471  0.86142311    -0.02400
C1018       C  0.64893777  0.77138358  0.84658481    -0.02410
C1019       C  0.67775785  0.79033772  0.83503236     0.07520
C1020       C  0.67654319  0.82685551  0.83447337    -0.02600
Br1021     Br  0.71549178  0.85217048  0.81734493    -0.01150
Br1022     Br  0.64264423  0.89432702  0.83906359    -0.01220
Br1023     Br  0.64587354  0.72183375  0.83909418    -0.01180
Br1024     Br  0.59006385  0.76323584  0.89146704    -0.01160
C1025       C  0.62685645  0.60200226  0.71477677    -0.02290
C1026       C  0.61785814  0.58035904  0.74310367     0.07390
C1027       C  0.63491191  0.58541018  0.77514752    -0.02400
C1028       C  0.66076834  0.61133528  0.77862470    -0.02410
C1029       C  0.66891432  0.63379559  0.75050930     0.07520
C1030       C  0.65073924  0.62958274  0.71889743    -0.02600
Br1031     Br  0.65813856  0.66158947  0.68096911    -0.01150
Br1032     Br  0.60793975  0.59236128  0.66949364    -0.01220
Br1033     Br  0.68337331  0.61756137  0.82293399    -0.01180
Br1034     Br  0.62211101  0.55721523  0.81458267    -0.01160
C1035       C  0.94748857  0.96936069  0.51833837    -0.02290
C1036       C  0.92502453  0.95167418  0.49556806     0.07390
C1037       C  0.91141800  0.96959584  0.46618219    -0.02400
C1038       C  0.91654199  0.00538415  0.46255137    -0.02410
C1039       C  0.93352522  0.02400319  0.48923570     0.07520
C1040       C  0.95157280  0.00548129  0.51524077    -0.02600
Br1041     Br  0.98315295  0.02959267  0.54552938    -0.01150
Br1042     Br  0.97389698  0.94421128  0.55277060    -0.01220
Br1043     Br  0.89946983  0.02727226  0.42039227    -0.01180
Br1044     Br  0.88370735  0.94729425  0.43066213    -0.01160
C1045       C  0.89367842  0.85316582  0.59894115    -0.02290
C1046       C  0.87132943  0.85716146  0.57019105     0.07390
C1047       C  0.83787433  0.84186472  0.57104260    -0.02400
C1048       C  0.82848741  0.81996671  0.59857816    -0.02410
C1049       C  0.85083847  0.81636258  0.62721650     0.07520
C1050       C  0.88255244  0.83438793  0.62806714    -0.02600
Br1051     Br  0.91159534  0.83244961  0.66851052    -0.01150
Br1052     Br  0.94094886  0.86973877  0.59760602    -0.01220
Br1053     Br  0.78431536  0.79596115  0.59759012    -0.01180
Br1054     Br  0.80411791  0.85098137  0.53520532    -0.01160
C1055       C  0.67726299  0.69112401  0.57455900    -0.02290
C1056       C  0.65083535  0.71662871  0.57067538     0.07390
C1057       C  0.65070853  0.74529717  0.59348602    -0.02400
C1058       C  0.67670615  0.74868813  0.61931235    -0.02410
C1059       C  0.70361724  0.72344654  0.62288824     0.07520
C1060       C  0.70382197  0.69487400  0.59977801    -0.02600
Br1061     Br  0.74050213  0.66063120  0.60195254    -0.01150
Br1062     Br  0.67695070  0.65060847  0.54497886    -0.01220
Br1063     Br  0.67679096  0.79012504  0.64760392    -0.01180
Br1064     Br  0.61607610  0.78142149  0.58792483    -0.01160
C1065       C  0.71117023  0.75187572  0.41999794    -0.02290
C1066       C  0.70745071  0.72992071  0.39095330     0.07390
C1067       C  0.67830014  0.70768880  0.38976690    -0.02400
C1068       C  0.65257647  0.70823535  0.41608504    -0.02410
C1069       C  0.65482953  0.73209425  0.44384122     0.07520
C1070       C  0.68406019  0.75467855  0.44485569    -0.02600
Br1071     Br  0.68656001  0.79090628  0.47948261    -0.01150
Br1072     Br  0.75421221  0.77655211  0.42713393    -0.01220
Br1073     Br  0.61566744  0.67434554  0.41488631    -0.01180
Br1074     Br  0.67595014  0.67301783  0.35420163    -0.01160
C1075       C  0.85136618  0.86002729  0.43202574    -0.02290
C1076       C  0.88355359  0.84737878  0.44470643     0.07390
C1077       C  0.90194274  0.82166393  0.42701539    -0.02400
C1078       C  0.88748186  0.80737587  0.39713069    -0.02410
C1079       C  0.85631831  0.82119274  0.38311121     0.07520
C1080       C  0.83863889  0.84806608  0.40023861    -0.02600
Br1081     Br  0.79578318  0.86658481  0.38161628    -0.01150
Br1082     Br  0.82328911  0.89197688  0.45876142    -0.01220
Br1083     Br  0.90983930  0.76751039  0.37762605    -0.01180
Br1084     Br  0.94605549  0.80513158  0.44487770    -0.01160
C1085       C  0.54209181  0.88638814  0.01505043    -0.02290
C1086       C  0.56736446  0.86751557  0.03389881     0.07390
C1087       C  0.59424748  0.85044678  0.01533928    -0.02400
C1088       C  0.59008004  0.84389036  0.97989227    -0.02410
C1089       C  0.56229944  0.85952996  0.96140899     0.07520
C1090       C  0.54011959  0.88308144  0.97872466    -0.02600
Br1091     Br  0.50786086  0.91152014  0.95289849    -0.01150
Br1092     Br  0.51116063  0.91775393  0.03911732    -0.01220
Br1093     Br  0.62177195  0.81101927  0.95854207    -0.01180
Br1094     Br  0.63857258  0.83810009  0.03577848    -0.01160
C1095       C  0.62198165  0.83196315  0.17701376    -0.02290
C1096       C  0.61349964  0.82264272  0.14295191     0.07390
C1097       C  0.63118427  0.79484694  0.12664323    -0.02400
C1098       C  0.66120213  0.78073783  0.14186572    -0.02410
C1099       C  0.67012090  0.79019827  0.17604190     0.07520
C1100       C  0.64825024  0.81368480  0.19458439    -0.02600
Br1101     Br  0.65042301  0.81894664  0.24442857    -0.01150
Br1102     Br  0.59655646  0.86889347  0.19984622    -0.01220
Br1103     Br  0.68762042  0.74598643  0.11692366    -0.01180
Br1104     Br  0.61137186  0.77212330  0.08660707    -0.01160
C1105       C  0.64883515  0.57775454  0.24747485    -0.02290
C1106       C  0.61871961  0.58555716  0.26705186     0.07390
C1107       C  0.61666081  0.61877449  0.28297114    -0.02400
C1108       C  0.64098000  0.64498389  0.27512838    -0.02410
C1109       C  0.67312643  0.63642731  0.25911202     0.07520
C1110       C  0.67663579  0.60188224  0.24531313    -0.02600
Br1111     Br  0.71776392  0.58656780  0.22025853    -0.01150
Br1112     Br  0.65145049  0.53500841  0.22113115    -0.01220
Br1113     Br  0.62630695  0.69264831  0.28242011    -0.01180
Br1114     Br  0.58126799  0.62872095  0.31736527    -0.01160
C1115       C  0.90949602  0.55569046  0.20575554    -0.02290
C1116       C  0.91600655  0.55530990  0.16956866     0.07390
C1117       C  0.91103672  0.58576580  0.14967742    -0.02400
C1118       C  0.90003580  0.61642920  0.16595240    -0.02410
C1119       C  0.89154487  0.61614564  0.20146618     0.07520
C1120       C  0.89594142  0.58571343  0.22115595    -0.02600
Br1121     Br  0.88239904  0.58485505  0.26915002    -0.01150
Br1122     Br  0.91980897  0.51609479  0.23521770    -0.01220
Br1123     Br  0.89465303  0.65814723  0.13902557    -0.01180
Br1124     Br  0.91683130  0.58513660  0.09973504    -0.01160
C1125       C  0.92371316  0.37088179  0.18767688    -0.02290
C1126       C  0.88717069  0.36869517  0.19258856     0.07390
C1127       C  0.86586442  0.39622476  0.17921448    -0.02400
C1128       C  0.88052269  0.42159203  0.15773375    -0.02410
C1129       C  0.91660248  0.42689217  0.15824582     0.07520
C1130       C  0.93820025  0.40184494  0.17478444    -0.02600
Br1131     Br  0.98670464  0.41067278  0.18487474    -0.01150
Br1132     Br  0.95538929  0.33319917  0.19900840    -0.01220
Br1133     Br  0.85081405  0.44886054  0.12724796    -0.01180
Br1134     Br  0.81716180  0.40350583  0.19108849    -0.01160
C1135       C  0.76514439  0.56379913  0.38590386    -0.02290
C1136       C  0.79506586  0.55230367  0.40402147     0.07390
C1137       C  0.82753912  0.56651237  0.39495987    -0.02400
C1138       C  0.82992958  0.59207062  0.36860833    -0.02410
C1139       C  0.80004821  0.60437651  0.35111343     0.07520
C1140       C  0.76771038  0.58921376  0.35932350    -0.02600
Br1141     Br  0.72720454  0.60170679  0.33281394    -0.01150
Br1142     Br  0.72052102  0.54422642  0.39741170    -0.01220
Br1143     Br  0.87470212  0.60678170  0.35316313    -0.01180
Br1144     Br  0.86910428  0.54940002  0.41743703    -0.01160
C1145       C  0.76480685  0.41714192  0.37936722    -0.02290
C1146       C  0.79254445  0.42445368  0.40235593     0.07390
C1147       C  0.82329934  0.40453754  0.39972991    -0.02400
C1148       C  0.82624972  0.37777574  0.37468113    -0.02410
C1149       C  0.79875236  0.37065492  0.35123786     0.07520
C1150       C  0.76799449  0.39077976  0.35384096    -0.02600
Br1151     Br  0.72961515  0.38190255  0.32305102    -0.01150
Br1152     Br  0.72196017  0.44314738  0.38324895    -0.01220
Br1153     Br  0.86933592  0.35256702  0.37133124    -0.01180
Br1154     Br  0.86245009  0.41539466  0.42915097    -0.01160
C1155       C  0.43276944  0.59627054  0.76126275    -0.02290
C1156       C  0.43319739  0.62878706  0.74300318     0.07390
C1157       C  0.46214566  0.63570583  0.72126309    -0.02400
C1158       C  0.48789616  0.61002165  0.71583039    -0.02410
C1159       C  0.48952607  0.57981877  0.73691059     0.07520
C1160       C  0.46188380  0.57357775  0.76020144    -0.02600
Br1161     Br  0.46471830  0.53550725  0.79302276    -0.01150
Br1162     Br  0.39350554  0.58157206  0.78930590    -0.01220
Br1163     Br  0.51959632  0.61556594  0.67734001    -0.01180
Br1164     Br  0.46842951  0.68030675  0.69884435    -0.01160
C1165       C  0.46585732  0.76478281  0.82690384    -0.02290
C1166       C  0.43277669  0.77750809  0.83643453     0.07390
C1167       C  0.43017907  0.80616058  0.85910381    -0.02400
C1168       C  0.46026351  0.82411445  0.86915346    -0.02410
C1169       C  0.49368191  0.81113665  0.86050512     0.07520
C1170       C  0.49609089  0.78105366  0.83895975    -0.02600
Br1171     Br  0.53949689  0.76083752  0.82333557    -0.01150
Br1172     Br  0.47030401  0.72420174  0.79721949    -0.01220
Br1173     Br  0.45463606  0.86944807  0.88995701    -0.01180
Br1174     Br  0.38565675  0.82208016  0.87616598    -0.01160
C1175       C  0.06995444  0.47718382  0.84733956    -0.02290
C1176       C  0.09099490  0.47875771  0.87723556     0.07390
C1177       C  0.07589211  0.48157377  0.91042741    -0.02400
C1178       C  0.03938661  0.48186474  0.91368398    -0.02410
C1179       C  0.01859630  0.48003127  0.88367987     0.07520
C1180       C  0.03403682  0.47869672  0.85048223    -0.02600
Br1181     Br  0.00636971  0.48012461  0.80851010    -0.01150
Br1182     Br  0.08984891  0.47342797  0.80132984    -0.01220
Br1183     Br  0.01774522  0.48506190  0.95859594    -0.01180
Br1184     Br  0.10518779  0.48527875  0.95077794    -0.01160
C1185       C  0.18551664  0.59316224  0.78330507    -0.02290
C1186       C  0.21449395  0.60661434  0.80081264     0.07390
C1187       C  0.22699801  0.59019545  0.83112837    -0.02400
C1188       C  0.21094190  0.56011222  0.84355074    -0.02410
C1189       C  0.18364541  0.54531353  0.82455480     0.07520
C1190       C  0.17119508  0.56153749  0.79414412    -0.02600
Br1191     Br  0.13648486  0.53970849  0.76579982    -0.01150
Br1192     Br  0.16573271  0.61744285  0.74431031    -0.01220
Br1193     Br  0.22704236  0.53839570  0.88598134    -0.01180
Br1194     Br  0.26613085  0.60877136  0.85581364    -0.01160
C1195       C  0.29344754  0.57497982  0.59065530    -0.02290
C1196       C  0.31422908  0.54543818  0.59749908     0.07390
C1197       C  0.33492149  0.54546700  0.62808091    -0.02400
C1198       C  0.33231520  0.57273481  0.65284310    -0.02410
C1199       C  0.31074698  0.60217340  0.64659655     0.07520
C1200       C  0.29331439  0.60381351  0.61362212    -0.02600
Br1201     Br  0.26927718  0.64526906  0.59742172    -0.01150
Br1202     Br  0.26274420  0.57531626  0.55079495    -0.01220
Br1203     Br  0.36093440  0.57009699  0.69402384    -0.01180
Br1204     Br  0.36865650  0.50868918  0.63548874    -0.01160
C1205       C  0.20548662  0.80928063  0.57307914    -0.02290
C1206       C  0.20829734  0.84515374  0.56719239     0.07390
C1207       C  0.22089441  0.86676843  0.59427733    -0.02400
C1208       C  0.23526420  0.85182138  0.62449807    -0.02410
C1209       C  0.23910581  0.81522678  0.62684099     0.07520
C1210       C  0.22096841  0.79423406  0.60244364    -0.02600
Br1211     Br  0.21352811  0.74507279  0.60963409    -0.01150
Br1212     Br  0.17874565  0.78085363  0.54133011    -0.01220
Br1213     Br  0.24684513  0.88240573  0.66284622    -0.01180
Br1214     Br  0.21952327  0.91690052  0.59148610    -0.01160
C1215       C  0.44759375  0.69599843  0.58465368    -0.02290
C1216       C  0.45324761  0.72599285  0.56407933     0.07390
C1217       C  0.43160183  0.75527791  0.56946197    -0.02400
C1218       C  0.40514933  0.75466480  0.59499946    -0.02410
C1219       C  0.40027064  0.72532988  0.61640102     0.07520
C1220       C  0.42101592  0.69556342  0.61030874    -0.02600
Br1221     Br  0.41027453  0.65308736  0.63467108    -0.01150
Br1222     Br  0.47533731  0.65494418  0.57670803    -0.01220
Br1223     Br  0.37401428  0.79330945  0.59899652    -0.01180
Br1224     Br  0.43824661  0.79658742  0.54166696    -0.01160
C1225       C  0.47095920  0.32074692  0.72555180    -0.02290
C1226       C  0.43648918  0.33063985  0.73459585     0.07390
C1227       C  0.43072312  0.36717094  0.74076321    -0.02400
C1228       C  0.45899888  0.39073469  0.74283155    -0.02410
C1229       C  0.49241976  0.38110581  0.73077659     0.07520
C1230       C  0.49652639  0.34631588  0.71874336    -0.02600
Br1231     Br  0.53579617  0.33342941  0.68988297    -0.01150
Br1232     Br  0.48593637  0.27269541  0.72547952    -0.01220
Br1233     Br  0.45143080  0.43504098  0.76540725    -0.01180
Br1234     Br  0.38479270  0.38791989  0.74548030    -0.01160
C1235       C  0.45904362  0.19508059  0.83669415    -0.02290
C1236       C  0.43135536  0.17406460  0.82608752     0.07390
C1237       C  0.43349022  0.13766283  0.82962882    -0.02400
C1238       C  0.46337039  0.12216638  0.84392064    -0.02410
C1239       C  0.49070601  0.14326649  0.85528583     0.07520
C1240       C  0.48789913  0.17989643  0.85291885    -0.02600
Br1241     Br  0.52237269  0.20995983  0.87322842    -0.01150
Br1242     Br  0.45834875  0.24444697  0.82716554    -0.01220
Br1243     Br  0.46720523  0.07230928  0.84769836    -0.01180
Br1244     Br  0.39664023  0.10898832  0.81263738    -0.01160
C1245       C  0.33398966  0.39891333  0.60056732    -0.02290
C1246       C  0.30287000  0.41752474  0.59432217     0.07390
C1247       C  0.27279447  0.40844666  0.61353043    -0.02400
C1248       C  0.27395089  0.38131794  0.63854923    -0.02410
C1249       C  0.30520817  0.36301671  0.64491579     0.07520
C1250       C  0.33504774  0.37196738  0.62561345    -0.02600
Br1251     Br  0.37784460  0.34779056  0.63425751    -0.01150
Br1252     Br  0.37588185  0.41150675  0.57599021    -0.01220
Br1253     Br  0.23287937  0.36943892  0.66473501    -0.01180
Br1254     Br  0.22990034  0.43327547  0.60546097    -0.01160
C1255       C  0.23782226  0.39118864  0.79559182    -0.02290
C1256       C  0.21872058  0.36091922  0.78753406     0.07390
C1257       C  0.18248872  0.36093964  0.79440217    -0.02400
C1258       C  0.16702393  0.38915062  0.81209860    -0.02410
C1259       C  0.18803040  0.41654582  0.82496612     0.07520
C1260       C  0.22406628  0.41564576  0.81848202    -0.02600
Br1261     Br  0.25570514  0.44679583  0.84191565    -0.01150
Br1262     Br  0.27825407  0.40513602  0.76901251    -0.01220
Br1263     Br  0.11699770  0.38935661  0.81707409    -0.01180
Br1264     Br  0.15243190  0.32522902  0.77604857    -0.01160
C1265       C  0.14831996  0.96223998  0.48722142    -0.02290
C1266       C  0.17783977  0.94215517  0.49539446     0.07390
C1267       C  0.20975160  0.95817983  0.50305588    -0.02400
C1268       C  0.21202882  0.99405107  0.50347307    -0.02410
C1269       C  0.18252697  0.01447622  0.49614501     0.07520
C1270       C  0.15070069  0.99874725  0.48748399    -0.02600
Br1271     Br  0.11113275  0.02714150  0.47543633    -0.01150
Br1272     Br  0.10559707  0.93965837  0.47470345    -0.01220
Br1273     Br  0.25690894  0.01452821  0.51170268    -0.01180
Br1274     Br  0.25165354  0.93152438  0.51139665    -0.01160
C1275       C  0.22099073  0.15741152  0.60092832    -0.02290
C1276       C  0.25230308  0.14576011  0.61624311     0.07390
C1277       C  0.27312671  0.12102438  0.59930246    -0.02400
C1278       C  0.26281703  0.10861292  0.56679685    -0.02410
C1279       C  0.22912375  0.11623416  0.55442118     0.07520
C1280       C  0.20815844  0.14071421  0.57145654    -0.02600
Br1281     Br  0.16316485  0.15323476  0.55275956    -0.01150
Br1282     Br  0.19752355  0.19847784  0.61727076    -0.01220
Br1283     Br  0.29695097  0.08667553  0.53747754    -0.01180
Br1284     Br  0.31707158  0.10660521  0.61901523    -0.01160
C1285       C  0.21335181  0.14506112  0.41789040    -0.02290
C1286       C  0.22507718  0.11179848  0.42703216     0.07390
C1287       C  0.25063789  0.09473327  0.40706895    -0.02400
C1288       C  0.26540550  0.11169457  0.37836305    -0.02410
C1289       C  0.25638689  0.14673487  0.37137744     0.07520
C1290       C  0.22956642  0.16294681  0.39084363    -0.02600
Br1291     Br  0.21346786  0.20933566  0.38092512    -0.01150
Br1292     Br  0.17498698  0.16611655  0.44302362    -0.01220
Br1293     Br  0.29814524  0.08639889  0.34972120    -0.01180
Br1294     Br  0.26727874  0.04915294  0.42035458    -0.01160
C1295       C  0.43325421  0.25439659  0.61138576    -0.02290
C1296       C  0.40299329  0.23366624  0.60961825     0.07390
C1297       C  0.39931280  0.21081002  0.58129672    -0.02400
C1298       C  0.42660956  0.20688336  0.55688026    -0.02410
C1299       C  0.45596128  0.22925181  0.55747608     0.07520
C1300       C  0.45868386  0.25341155  0.58490635    -0.02600
Br1301     Br  0.49572279  0.28726464  0.58549661    -0.01150
Br1302     Br  0.43947804  0.28585712  0.64939221    -0.01220
Br1303     Br  0.42432249  0.16942795  0.52356370    -0.01180
Br1304     Br  0.35702355  0.18456772  0.57590476    -0.01160
C1305       C  0.40208090  0.26191339  0.40672054    -0.02290
C1306       C  0.40806595  0.24009583  0.37765110     0.07390
C1307       C  0.44007336  0.22110680  0.37648404    -0.02400
C1308       C  0.46477541  0.22379714  0.40365250    -0.02410
C1309       C  0.45961459  0.24755983  0.43108441     0.07520
C1310       C  0.42891157  0.26809608  0.43096278    -0.02600
Br1311     Br  0.42360573  0.30548753  0.46413670    -0.01150
Br1312     Br  0.35652436  0.28094859  0.41666073    -0.01220
Br1313     Br  0.50448528  0.19272537  0.40431668    -0.01180
Br1314     Br  0.44978025  0.18815265  0.33979378    -0.01160
C1315       C  0.45461350  0.62272742  0.22260997    -0.02290
C1316       C  0.44214572  0.63918672  0.25288834     0.07390
C1317       C  0.45568636  0.62886669  0.28536323    -0.02400
C1318       C  0.47968005  0.60099447  0.28753527    -0.02410
C1319       C  0.49191764  0.58446290  0.25709307     0.07520
C1320       C  0.47956826  0.59582623  0.22458597    -0.02600
Br1321     Br  0.49803444  0.57517070  0.18277999    -0.01150
Br1322     Br  0.43947254  0.63910423  0.17821256    -0.01220
Br1323     Br  0.49602498  0.58535241  0.33230042    -0.01180
Br1324     Br  0.44205914  0.65342887  0.32677909    -0.01160
C1325       C  0.42907027  0.81910749  0.14172665    -0.02290
C1326       C  0.43025027  0.78550205  0.15627727     0.07390
C1327       C  0.46056967  0.76523688  0.15289979    -0.02400
C1328       C  0.48886891  0.77767857  0.13382368    -0.02410
C1329       C  0.48904296  0.81245334  0.12217637     0.07520
C1330       C  0.45877962  0.83302665  0.12563674    -0.02600
Br1331     Br  0.45874754  0.88119270  0.11162211    -0.01150
Br1332     Br  0.38845595  0.84775648  0.14764828    -0.01220
Br1333     Br  0.52746522  0.74681519  0.12405151    -0.01180
Br1334     Br  0.46513951  0.72186929  0.17718806    -0.01160
C1335       C  0.42928077  0.69519003  0.43216700    -0.02290
C1336       C  0.45821702  0.71773919  0.43543168     0.07390
C1337       C  0.46481979  0.74111564  0.40787098    -0.02400
C1338       C  0.44306185  0.74204775  0.37805817    -0.02410
C1339       C  0.41097806  0.72330347  0.37722070     0.07520
C1340       C  0.40525242  0.69882188  0.40432623    -0.02600
Br1341     Br  0.36630731  0.66729753  0.40239086    -0.01150
Br1342     Br  0.42334562  0.65762323  0.46513482    -0.01220
Br1343     Br  0.46005972  0.76791995  0.33831854    -0.01180
Br1344     Br  0.50231566  0.77420577  0.41161566    -0.01160
C1345       C  0.20598755  0.82142324  0.41698346    -0.02290
C1346       C  0.22701117  0.84218157  0.43834734     0.07390
C1347       C  0.26060887  0.85168170  0.42719919    -0.02400
C1348       C  0.27247355  0.84143128  0.39433534    -0.02410
C1349       C  0.25253139  0.81874526  0.37423982     0.07520
C1350       C  0.21891873  0.80956604  0.38505986    -0.02600
Br1351     Br  0.18986924  0.78302056  0.35470495    -0.01150
Br1352     Br  0.15975635  0.80879109  0.43181785    -0.01220
Br1353     Br  0.31461742  0.86041586  0.37575422    -0.01180
Br1354     Br  0.29156560  0.87684204  0.45696018    -0.01160
C1355       C  0.03372990  0.50024373  0.16074927    -0.02290
C1356       C  0.01734486  0.49461098  0.12839327     0.07390
C1357       C  0.03702863  0.48747991  0.09849263    -0.02400
C1358       C  0.07336306  0.48578923  0.10091304    -0.02410
C1359       C  0.08950154  0.49184152  0.13313119     0.07520
C1360       C  0.06980908  0.49972185  0.16288971    -0.02600
Br1361     Br  0.09195873  0.50877051  0.20714891    -0.01150
Br1362     Br  0.00728662  0.50634004  0.20313794    -0.01220
Br1363     Br  0.10108132  0.47541138  0.06043270    -0.01180
Br1364     Br  0.01406370  0.47978886  0.05476552    -0.01160
C1365       C  0.21643875  0.54162798  0.20283387    -0.02290
C1366       C  0.20033722  0.54276552  0.16954658     0.07390
C1367       C  0.19599238  0.57527457  0.15284001    -0.02400
C1368       C  0.20326511  0.60587826  0.17078471    -0.02410
C1369       C  0.22328650  0.60444446  0.20119453     0.07520
C1370       C  0.22957551  0.57223059  0.21750481    -0.02600
Br1371     Br  0.25304902  0.57053040  0.26210745    -0.01150
Br1372     Br  0.21933373  0.49986244  0.23065819    -0.01220
Br1373     Br  0.18098782  0.64830964  0.15629475    -0.01180
Br1374     Br  0.18202976  0.57862750  0.10461622    -0.01160
C1375       C  0.19218176  0.37883091  0.21748019    -0.02290
C1376       C  0.21058879  0.35553976  0.19649123     0.07390
C1377       C  0.21064095  0.35961118  0.16025847    -0.02400
C1378       C  0.19876655  0.39059489  0.14538536    -0.02410
C1379       C  0.18453408  0.41619215  0.16698885     0.07520
C1380       C  0.17858769  0.40920202  0.20259275    -0.02600
Br1381     Br  0.15087567  0.44007941  0.23067038    -0.01150
Br1382     Br  0.18365254  0.36755724  0.26550183    -0.01220
Br1383     Br  0.20196498  0.39807443  0.09588864    -0.01180
Br1384     Br  0.22438251  0.32167956  0.13138276    -0.01160
C1385       C  0.29057287  0.56872576  0.39647798    -0.02290
C1386       C  0.32124092  0.54876916  0.39990868     0.07390
C1387       C  0.34889287  0.55502509  0.37636309    -0.02400
C1388       C  0.34558245  0.58007163  0.34945483    -0.02410
C1389       C  0.31536777  0.60092946  0.34671691     0.07520
C1390       C  0.28779050  0.59459403  0.37036496    -0.02600
Br1391     Br  0.24429628  0.61862797  0.36481222    -0.01150
Br1392     Br  0.25116138  0.55893144  0.42603458    -0.01220
Br1393     Br  0.38212962  0.58457696  0.31565782    -0.01180
Br1394     Br  0.39169025  0.52900098  0.38110377    -0.01160
C1395       C  0.34088211  0.39711537  0.39471942    -0.02290
C1396       C  0.31351252  0.42166911  0.39680455     0.07390
C1397       C  0.28732404  0.42093344  0.37082494    -0.02400
C1398       C  0.28884131  0.39657699  0.34337831    -0.02410
C1399       C  0.31390077  0.36974723  0.34362258     0.07520
C1400       C  0.34112400  0.37161557  0.36814682    -0.02600
Br1401     Br  0.38217430  0.34406274  0.36043548    -0.01150
Br1402     Br  0.37936608  0.39983601  0.42668316    -0.01220
Br1403     Br  0.25922496  0.40268460  0.30347334    -0.01180
Br1404     Br  0.24878059  0.45328825  0.37279147    -0.01160
C1405       C  0.15062336  0.33427005  0.35576524    -0.02290
C1406       C  0.11865107  0.31651143  0.35683114     0.07390
C1407       C  0.11746214  0.28094671  0.34722972    -0.02400
C1408       C  0.14708877  0.26494592  0.33292332    -0.02410
C1409       C  0.17899485  0.28274941  0.33268760     0.07520
C1410       C  0.18101622  0.31630606  0.34686389    -0.02600
Br1411     Br  0.22513448  0.33762120  0.35545011    -0.01150
Br1412     Br  0.15305017  0.38377232  0.36432526    -0.01220
Br1413     Br  0.14436079  0.21797467  0.31532715    -0.01180
Br1414     Br  0.07685702  0.25273334  0.35599373    -0.01160
C1415       C  0.94579562  0.32806871  0.31971607    -0.02290
C1416       C  0.93010281  0.29965722  0.33672029     0.07390
C1417       C  0.94131876  0.29027111  0.37027851    -0.02400
C1418       C  0.97295299  0.30322439  0.38263112    -0.02410
C1419       C  0.99109175  0.32864286  0.36320392     0.07520
C1420       C  0.97660634  0.34220330  0.33260234    -0.02600
Br1421     Br  0.99879150  0.38025969  0.30859208    -0.01150
Br1422     Br  0.92204637  0.35129928  0.28227072    -0.01220
Br1423     Br  0.99207484  0.28367725  0.42478400    -0.01180
Br1424     Br  0.91238678  0.26321715  0.40111210    -0.01160
C1425       C  0.14983555  0.07687706  0.26400644    -0.02290
C1426       C  0.12202798  0.08221894  0.24053432     0.07390
C1427       C  0.12211446  0.11289619  0.22008686    -0.02400
C1428       C  0.14603804  0.13966094  0.22674199    -0.02410
C1429       C  0.17619185  0.13290511  0.24685463     0.07520
C1430       C  0.17745261  0.10111249  0.26593754    -0.02600
Br1431     Br  0.21419733  0.09210341  0.29900624    -0.01150
Br1432     Br  0.14925262  0.03784815  0.29574998    -0.01220
Br1433     Br  0.13271655  0.18628351  0.21301300    -0.01180
Br1434     Br  0.08961254  0.11853285  0.18205524    -0.01160
C1435       C  0.99493708  0.11867156  0.27397887    -0.02290
C1436       C  0.99444514  0.08781537  0.25364491     0.07390
C1437       C  0.96771808  0.08456291  0.22855466    -0.02400
C1438       C  0.94163744  0.11061587  0.22523282    -0.02410
C1439       C  0.94260605  0.14143397  0.24531871     0.07520
C1440       C  0.97147922  0.14633809  0.26726500    -0.02600
Br1441     Br  0.98277036  0.19215865  0.28358137    -0.01150
Br1442     Br  0.02689951  0.12307147  0.31246744    -0.01220
Br1443     Br  0.90763627  0.10670120  0.18886986    -0.01180
Br1444     Br  0.96774506  0.04583680  0.19667379    -0.01160
C1445       C  0.96334870  0.65399482  0.37532845    -0.02290
C1446       C  0.99693942  0.66444031  0.36446984     0.07390
C1447       C  0.99972015  0.69292104  0.34129480    -0.02400
C1448       C  0.96987992  0.70522403  0.32414094    -0.02410
C1449       C  0.93638286  0.69576262  0.33668047     0.07520
C1450       C  0.93444946  0.67409258  0.36620879    -0.02600
Br1451     Br  0.89631324  0.67630993  0.39902418    -0.01150
Br1452     Br  0.95495183  0.61096795  0.40010925    -0.01220
Br1453     Br  0.97678478  0.73630149  0.28504503    -0.01180
Br1454     Br  0.04250100  0.71889693  0.33596619    -0.01160
C1455       C  0.13465621  0.63347412  0.33283140    -0.02290
C1456       C  0.12450482  0.64464015  0.36593099     0.07390
C1457       C  0.14589377  0.66805333  0.38464166    -0.02400
C1458       C  0.17641565  0.68097184  0.36959829    -0.02410
C1459       C  0.18350396  0.67404372  0.33436814     0.07520
C1460       C  0.16333814  0.64886967  0.31663743    -0.02600
Br1461     Br  0.17522499  0.63317765  0.27083545    -0.01150
Br1462     Br  0.10946733  0.59650746  0.31001363    -0.01220
Br1463     Br  0.20820587  0.70734536  0.39818566    -0.01180
Br1464     Br  0.13297562  0.68579461  0.42971527    -0.01160
C1465       C  0.96433362  0.89050399  0.21993493    -0.02290
C1466       C  0.98729170  0.89243385  0.24839057     0.07390
C1467       C  0.98019069  0.87234942  0.27820507    -0.02400
C1468       C  0.95400565  0.84688326  0.27764791    -0.02410
C1469       C  0.93208849  0.84331765  0.24860220     0.07520
C1470       C  0.93600977  0.86710120  0.22079449    -0.02600
Br1471     Br  0.90168565  0.86902708  0.18482672    -0.01150
Br1472     Br  0.97147826  0.92006697  0.18008182    -0.01220
Br1473     Br  0.94728055  0.81817904  0.31761983    -0.01180
Br1474     Br  0.00383177  0.88252325  0.32110789    -0.01160
C1475       C  0.14300149  0.88762718  0.22360797    -0.02290
C1476       C  0.11608445  0.88411436  0.24848820     0.07390
C1477       C  0.11683800  0.85394547  0.26997388    -0.02400
C1478       C  0.14167019  0.82713957  0.26480710    -0.02410
C1479       C  0.17030478  0.83221895  0.24258159     0.07520
C1480       C  0.17034167  0.86263631  0.22163420    -0.02600
Br1481     Br  0.20576230  0.86819166  0.18695415    -0.01150
Br1482     Br  0.14176499  0.92545091  0.19056437    -0.01220
Br1483     Br  0.13433993  0.78246432  0.28620659    -0.01180
Br1484     Br  0.08621618  0.85000648  0.30929578    -0.01160
C1485       C  0.05842974  0.65124563  0.48973515    -0.02290
C1486       C  0.05697367  0.62126069  0.46893766     0.07390
C1487       C  0.05681220  0.58783392  0.48375824    -0.02400
C1488       C  0.05706327  0.58440854  0.51993747    -0.02410
C1489       C  0.05949363  0.61432677  0.54050724     0.07520
C1490       C  0.06203819  0.64761664  0.52543902    -0.02600
Br1491     Br  0.07176088  0.68840511  0.55309426    -0.01150
Br1492     Br  0.05383815  0.69745507  0.47008581    -0.01220
Br1493     Br  0.05486622  0.53921295  0.54146756    -0.01180
Br1494     Br  0.05471861  0.54720294  0.45458067    -0.01160
C1495       C  0.14527998  0.62707766  0.65023334    -0.02290
C1496       C  0.11376946  0.64587912  0.64793062     0.07390
C1497       C  0.11254213  0.68120195  0.65778647    -0.02400
C1498       C  0.14208968  0.69669358  0.67187445    -0.02410
C1499       C  0.17411504  0.67872090  0.67200705     0.07520
C1500       C  0.17563710  0.64378859  0.66128447    -0.02600
Br1501     Br  0.21783101  0.61709767  0.66679665    -0.01150
Br1502     Br  0.14659592  0.57791027  0.63998829    -0.01220
Br1503     Br  0.13742547  0.74172250  0.69312537    -0.01180
Br1504     Br  0.07166147  0.70993139  0.65010361    -0.01160
C1505       C  0.96961118  0.66761415  0.62326532    -0.02290
C1506       C  0.98653433  0.63911781  0.63965297     0.07390
C1507       C  0.97330640  0.62549318  0.67080273    -0.02400
C1508       C  0.94490961  0.64162963  0.68689668    -0.02410
C1509       C  0.92904119  0.67102224  0.67137116     0.07520
C1510       C  0.94088874  0.68353258  0.63922276    -0.02600
Br1511     Br  0.91966849  0.72437704  0.61853201    -0.01150
Br1512     Br  0.98603371  0.68684199  0.58002646    -0.01220
Br1513     Br  0.92740709  0.62226778  0.72971184    -0.01180
Br1514     Br  0.99397549  0.58430081  0.69117290    -0.01160
C1515       C  0.12849904  0.86807653  0.72151579    -0.02290
C1516       C  0.11912000  0.88609239  0.75203518     0.07390
C1517       C  0.13923591  0.88159357  0.78215408    -0.02400
C1518       C  0.16694503  0.85749482  0.78227061    -0.02410
C1519       C  0.17329649  0.83575450  0.75342995     0.07520
C1520       C  0.15535189  0.84296205  0.72225242    -0.02600
Br1521     Br  0.16991317  0.82153206  0.67967259    -0.01150
Br1522     Br  0.10610100  0.87971324  0.67818628    -0.01220
Br1523     Br  0.19864213  0.85753515  0.82024431    -0.01180
Br1524     Br  0.12891304  0.90863093  0.82311592    -0.01160
C1525       C  0.99081474  0.84990150  0.73062921    -0.02290
C1526       C  0.99110518  0.88032439  0.75174897     0.07390
C1527       C  0.96392821  0.88425457  0.77627845    -0.02400
C1528       C  0.93686726  0.85931554  0.77848913    -0.02410
C1529       C  0.93803382  0.82808832  0.75884658     0.07520
C1530       C  0.96644326  0.82295259  0.73626410    -0.02600
Br1531     Br  0.97173543  0.77922297  0.71204532    -0.01150
Br1532     Br  0.02158436  0.84593672  0.69124499    -0.01220
Br1533     Br  0.89892491  0.86751770  0.81016250    -0.01180
Br1534     Br  0.96430335  0.92261263  0.80855246    -0.01160
C1535       C  0.05252565  0.39129555  0.47858674    -0.02290
C1536       C  0.06196528  0.36055732  0.46103683     0.07390
C1537       C  0.06826553  0.32950136  0.47955374    -0.02400
C1538       C  0.06410922  0.32902166  0.51543988    -0.02410
C1539       C  0.05485305  0.35983080  0.53313586     0.07520
C1540       C  0.04925775  0.39097916  0.51493339    -0.02600
Br1541     Br  0.03604895  0.43239984  0.53977836    -0.01150
Br1542     Br  0.04376272  0.43338624  0.45274784    -0.01220
Br1543     Br  0.06944364  0.28510680  0.53969787    -0.01180
Br1544     Br  0.08062429  0.28651392  0.45612643    -0.01160
C1545       C  0.17737511  0.29616874  0.62505376    -0.02290
C1546       C  0.17532794  0.28169241  0.65902196     0.07390
C1547       C  0.14389034  0.28592584  0.67797722    -0.02400
C1548       C  0.11877013  0.30926796  0.66636523    -0.02410
C1549       C  0.11791225  0.31894175  0.63116319     0.07520
C1550       C  0.14769782  0.31199998  0.61018151    -0.02600
Br1551     Br  0.14923045  0.32190921  0.56085186    -0.01150
Br1552     Br  0.21959277  0.29440330  0.59736969    -0.01220
Br1553     Br  0.08653559  0.32882164  0.69976508    -0.01180
Br1554     Br  0.13048794  0.25630243  0.71656124    -0.01160
C1555       C  0.94234034  0.26581293  0.63122097    -0.02290
C1556       C  0.93189226  0.28067207  0.66301351     0.07390
C1557       C  0.95041561  0.30898219  0.67700793    -0.02400
C1558       C  0.97811259  0.32335974  0.65856836    -0.02410
C1559       C  0.98933405  0.30781701  0.62755404     0.07520
C1560       C  0.97152012  0.27908382  0.61372779    -0.02600
Br1561     Br  0.98753264  0.25723916  0.57166996    -0.01150
Br1562     Br  0.91862687  0.22560811  0.61316600    -0.01220
Br1563     Br  0.00037200  0.36505842  0.67542194    -0.01180
Br1564     Br  0.93892515  0.32822037  0.72177978    -0.01160
C1565       C  0.12137264  0.10297741  0.71794894    -0.02290
C1566       C  0.11576835  0.08061191  0.74658963     0.07390
C1567       C  0.13659666  0.08502301  0.77654976    -0.02400
C1568       C  0.16258414  0.11108824  0.77762185    -0.02410
C1569       C  0.16884216  0.13272148  0.74860871     0.07520
C1570       C  0.14731534  0.12896027  0.71920847    -0.02600
Br1571     Br  0.15174641  0.16101237  0.68145922    -0.01150
Br1572     Br  0.09326936  0.09796207  0.67671826    -0.01220
Br1573     Br  0.18712484  0.11989474  0.82017745    -0.01180
Br1574     Br  0.12839372  0.05640179  0.81689826    -0.01160
C1575       C  0.95797054  0.07182655  0.74272967    -0.02290
C1576       C  0.98805752  0.07888310  0.76237947     0.07390
C1577       C  0.98774371  0.10850047  0.78431975    -0.02400
C1578       C  0.96031678  0.13320416  0.78258807    -0.02410
C1579       C  0.93064259  0.12701717  0.76157724     0.07520
C1580       C  0.92843608  0.09373294  0.74506440    -0.02600
Br1581     Br  0.88517944  0.07471923  0.72757073    -0.01150
Br1582     Br  0.95752675  0.03387900  0.70978081    -0.01220
Br1583     Br  0.96297567  0.17379867  0.81191550    -0.01180
Br1584     Br  0.02429535  0.11461417  0.81833998    -0.01160
C1585       C  0.43292026  0.06411907  0.29869476    -0.02290
C1586       C  0.42169907  0.05425885  0.33226280     0.07390
C1587       C  0.40164554  0.07715403  0.35249040    -0.02400
C1588       C  0.39044201  0.10869421  0.33800107    -0.02410
C1589       C  0.39745395  0.11585318  0.30282305     0.07520
C1590       C  0.41989996  0.09458140  0.28357205    -0.02600
Br1591     Br  0.43198858  0.10697836  0.23645942    -0.01150
Br1592     Br  0.46644782  0.03660469  0.27349530    -0.01220
Br1593     Br  0.36667731  0.14279173  0.36624586    -0.01180
Br1594     Br  0.38954313  0.06515126  0.39962216    -0.01160
C1595       C  0.39691965  0.86478547  0.33263777    -0.02290
C1596       C  0.38869538  0.86417360  0.29702258     0.07390
C1597       C  0.39162512  0.89442696  0.27683198    -0.02400
C1598       C  0.40355099  0.92525361  0.29191979    -0.02410
C1599       C  0.41061163  0.92644147  0.32805081     0.07520
C1600       C  0.40666045  0.89612012  0.34839716    -0.02600
Br1601     Br  0.41281469  0.89774508  0.39823982    -0.01150
Br1602     Br  0.39328486  0.82311298  0.36030961    -0.01220
Br1603     Br  0.41152446  0.96457942  0.26181178    -0.01180
Br1604     Br  0.37949683  0.89336796  0.22815509    -0.01160
C1605       C  0.28754142  0.07738564  0.08963145    -0.02290
C1606       C  0.30968147  0.04842972  0.09507209     0.07390
C1607       C  0.33023215  0.04787148  0.12580623    -0.02400
C1608       C  0.32505417  0.07276857  0.15237925    -0.02410
C1609       C  0.30458208  0.10272765  0.14604791     0.07520
C1610       C  0.28705749  0.10525636  0.11360644    -0.02600
Br1611     Br  0.26130350  0.14648947  0.10138262    -0.01150
Br1612     Br  0.25550201  0.07846200  0.05089580    -0.01220
Br1613     Br  0.34753999  0.06598969  0.19683639    -0.01180
Br1614     Br  0.36764574  0.01443173  0.13076077    -0.01160
C1615       C  0.30691216  0.89017286  0.08673702    -0.02290
C1616       C  0.28970109  0.92137673  0.09589328     0.07390
C1617       C  0.27480243  0.92331426  0.12959887    -0.02400
C1618       C  0.28327505  0.89844185  0.15522892    -0.02410
C1619       C  0.29652832  0.86539940  0.14540791     0.07520
C1620       C  0.30655847  0.86124666  0.10958709    -0.02600
Br1621     Br  0.32120651  0.81721614  0.08947835    -0.01150
Br1622     Br  0.33452251  0.88721260  0.04469211    -0.01220
Br1623     Br  0.28025085  0.91325406  0.20319306    -0.01180
Br1624     Br  0.24079505  0.95881614  0.14087957    -0.01160
C1625       C  0.69359212  0.05125479  0.72039244    -0.02290
C1626       C  0.68856467  0.04950783  0.68382456     0.07390
C1627       C  0.68857244  0.08052347  0.66406204    -0.02400
C1628       C  0.69363661  0.11219990  0.68072666    -0.02410
C1629       C  0.70575026  0.11267891  0.71484568     0.07520
C1630       C  0.70301089  0.08300551  0.73561390    -0.02600
Br1631     Br  0.70586604  0.08842270  0.78527131    -0.01150
Br1632     Br  0.68587917  0.01166255  0.75032683    -0.01220
Br1633     Br  0.67716796  0.15450257  0.66001299    -0.01180
Br1634     Br  0.68378274  0.08042106  0.61404176    -0.01160
C1635       C  0.73949800  0.87995351  0.67718680    -0.02290
C1636       C  0.72141826  0.85958359  0.70202536     0.07390
C1637       C  0.68736246  0.86912981  0.71187754    -0.02400
C1638       C  0.67308985  0.90047831  0.69962429    -0.02410
C1639       C  0.69167923  0.92081917  0.67533674     0.07520
C1640       C  0.72419381  0.90984897  0.66319668    -0.02600
Br1641     Br  0.74745497  0.93567716  0.62675678    -0.01150
Br1642     Br  0.78516324  0.86763999  0.66105894    -0.01220
Br1643     Br  0.62914558  0.91642167  0.71821334    -0.01180
Br1644     Br  0.66021645  0.84036501  0.74277844    -0.01160
C1645       C  0.79318878  0.04418313  0.86553686    -0.02290
C1646       C  0.81105000  0.04528126  0.89800991     0.07390
C1647       C  0.83343573  0.07396789  0.90356646    -0.02400
C1648       C  0.83628315  0.10078240  0.87817628    -0.02410
C1649       C  0.81703019  0.09985855  0.84692149     0.07520
C1650       C  0.79910596  0.06911942  0.83932227    -0.02600
Br1651     Br  0.78804539  0.05745010  0.79182195    -0.01150
Br1652     Br  0.75698834  0.01139578  0.85664360    -0.01220
Br1653     Br  0.87321965  0.13388033  0.88141605    -0.01180
Br1654     Br  0.86189371  0.07637138  0.94475817    -0.01160
C1655       C  0.79534310  0.89271784  0.84966655    -0.02290
C1656       C  0.81718076  0.86368527  0.85381735     0.07390
C1657       C  0.83791791  0.86189475  0.88443568    -0.02400
C1658       C  0.83809957  0.88997172  0.90846425    -0.02410
C1659       C  0.81284744  0.91661704  0.90559945     0.07520
C1660       C  0.78890355  0.91448001  0.87805736    -0.02600
Br1661     Br  0.74259873  0.93201148  0.88438514    -0.01150
Br1662     Br  0.77918118  0.90745031  0.80467945    -0.01220
Br1663     Br  0.87263397  0.89167242  0.94465233    -0.01180
Br1664     Br  0.86756450  0.82234472  0.89269807    -0.01160
C1665       C  0.38120567  0.30988566  0.10052431    -0.02290
C1666       C  0.35216598  0.32308339  0.11868930     0.07390
C1667       C  0.33418035  0.35237134  0.10614480    -0.02400
C1668       C  0.34270075  0.36579118  0.07345244    -0.02410
C1669       C  0.37177076  0.35258448  0.05541571     0.07520
C1670       C  0.39176705  0.32549032  0.06955821    -0.02600
Br1671     Br  0.43416041  0.31037430  0.04703146    -0.01150
Br1672     Br  0.40744503  0.27108154  0.11820341    -0.01220
Br1673     Br  0.31286758  0.40024935  0.05277473    -0.01180
Br1674     Br  0.29819853  0.37439145  0.13333259    -0.01160
C1675       C  0.39411604  0.31482729  0.92173075    -0.02290
C1676       C  0.38493673  0.34977637  0.92722317     0.07390
C1677       C  0.36489791  0.36783973  0.90227057    -0.02400
C1678       C  0.35246387  0.35038674  0.87299366    -0.02410
C1679       C  0.35872122  0.31442836  0.86908769     0.07520
C1680       C  0.38018274  0.29676128  0.89346508    -0.02600
Br1681     Br  0.39092767  0.24774162  0.88955868    -0.01150
Br1682     Br  0.42653027  0.29184313  0.95269866    -0.01220
Br1683     Br  0.32446765  0.37614122  0.84024779    -0.01180
Br1684     Br  0.35180623  0.41598413  0.90848309    -0.01160
C1685       C  0.18846030  0.24786459  0.05812687    -0.02290
C1686       C  0.15959082  0.22495656  0.05846469     0.07390
C1687       C  0.15740920  0.20008594  0.08547068    -0.02400
C1688       C  0.18250754  0.19952310  0.11238317    -0.02410
C1689       C  0.21058921  0.22309002  0.11235264     0.07520
C1690       C  0.21515710  0.24469661  0.08307887    -0.02600
Br1691     Br  0.25952409  0.26643179  0.07412977    -0.01150
Br1692     Br  0.19125923  0.28498090  0.02428131    -0.01220
Br1693     Br  0.18256814  0.16194714  0.14544787    -0.01180
Br1694     Br  0.12169658  0.16502628  0.08457667    -0.01160
C1695       C  0.20387570  0.19442942  0.89755088    -0.02290
C1696       C  0.20643476  0.22502429  0.87733459     0.07390
C1697       C  0.18348956  0.25296019  0.88465346    -0.02400
C1698       C  0.15810762  0.25022561  0.91119066    -0.02410
C1699       C  0.15503730  0.21938806  0.93090631     0.07520
C1700       C  0.17796379  0.19138883  0.92355359    -0.02600
Br1701     Br  0.17375858  0.14845102  0.94927761    -0.01150
Br1702     Br  0.23619731  0.15663469  0.89035659    -0.01220
Br1703     Br  0.12908217  0.28983221  0.92201533    -0.01180
Br1704     Br  0.18913410  0.29657088  0.86064266    -0.01160
C1705       C  0.70941213  0.65410307  0.12956396    -0.02290
C1706       C  0.74558998  0.65932961  0.12886859     0.07390
C1707       C  0.76466704  0.65334020  0.09837600    -0.02400
C1708       C  0.74791540  0.64108729  0.06860342    -0.02410
C1709       C  0.71142916  0.63593199  0.06906679     0.07520
C1710       C  0.69225354  0.64265944  0.09957614    -0.02600
Br1711     Br  0.64225653  0.63809073  0.09976630    -0.01150
Br1712     Br  0.68295140  0.66528392  0.17067163    -0.01220
Br1713     Br  0.77606634  0.63085017  0.02807769    -0.01180
Br1714     Br  0.81385478  0.66278036  0.09729253    -0.01160
C1715       C  0.75511576  0.62284654  0.90016254    -0.02290
C1716       C  0.74593627  0.65557483  0.88692306     0.07390
C1717       C  0.71938429  0.67511300  0.90356076    -0.02400
C1718       C  0.69899182  0.65993776  0.92949810    -0.02410
C1719       C  0.70821012  0.62728144  0.94286529     0.07520
C1720       C  0.73676159  0.60881661  0.92842213    -0.02600
Br1721     Br  0.75330968  0.56580815  0.94850616    -0.01150
Br1722     Br  0.79690843  0.60058407  0.88403832    -0.01220
Br1723     Br  0.65851572  0.68423352  0.94725283    -0.01180
Br1724     Br  0.71358145  0.72421535  0.89593447    -0.01160
C1725       C  0.96167174  0.73417709  0.09738013    -0.02290
C1726       C  0.95303584  0.74931424  0.06503360     0.07390
C1727       C  0.91916355  0.76406974  0.06180612    -0.02400
C1728       C  0.89324842  0.75790506  0.08721593    -0.02410
C1729       C  0.90262986  0.74697993  0.12118776     0.07520
C1730       C  0.93842908  0.73648104  0.12603010    -0.02600
Br1731     Br  0.95806949  0.72324610  0.17076274    -0.01150
Br1732     Br  0.00377401  0.70675265  0.10233257    -0.01220
Br1733     Br  0.84533275  0.75982623  0.07212804    -0.01180
Br1734     Br  0.90800784  0.79517673  0.02377699    -0.01160
C1735       C  0.90280484  0.70478158  0.91112001    -0.02290
C1736       C  0.90508925  0.73068898  0.88533122     0.07390
C1737       C  0.93431177  0.75291601  0.88507005    -0.02400
C1738       C  0.95885752  0.75177718  0.91231515    -0.02410
C1739       C  0.95625420  0.72632329  0.93874389     0.07520
C1740       C  0.92877841  0.70187762  0.93697084    -0.02600
Br1741     Br  0.92716822  0.66354249  0.96942096    -0.01150
Br1742     Br  0.86488814  0.67213947  0.90994940    -0.01220
Br1743     Br  0.99440288  0.78705535  0.91424572    -0.01180
Br1744     Br  0.94101287  0.78534668  0.84730062    -0.01160
C1745       C  0.54039652  0.97542819  0.60086573    -0.02290
C1746       C  0.51948704  0.98323126  0.62982020     0.07390
C1747       C  0.53437493  0.99292415  0.66184149    -0.02400
C1748       C  0.57032884  0.99404962  0.66506738    -0.02410
C1749       C  0.59137841  0.98638722  0.63603582     0.07520
C1750       C  0.57663678  0.97722560  0.60393506    -0.02600
Br1751     Br  0.60607407  0.96739503  0.56452993    -0.01150
Br1752     Br  0.51928812  0.96268801  0.55730079    -0.01220
Br1753     Br  0.59035561  0.00450170  0.71011312    -0.01180
Br1754     Br  0.50595670  0.00386136  0.70207160    -0.01160
C1755       C  0.39800112  0.03593738  0.69523541    -0.02290
C1756       C  0.41074087  0.03751285  0.66070896     0.07390
C1757       C  0.41153108  0.06979183  0.64327998    -0.02400
C1758       C  0.40263017  0.10027464  0.66116051    -0.02410
C1759       C  0.38666661  0.09822320  0.69406884     0.07520
C1760       C  0.38274723  0.06546005  0.71017917    -0.02600
Br1761     Br  0.35554352  0.05980952  0.75202353    -0.01150
Br1762     Br  0.40404648  0.99513562  0.72428390    -0.01220
Br1763     Br  0.41149690  0.14439052  0.63957915    -0.01180
Br1764     Br  0.42290534  0.07238710  0.59432798    -0.01160
C1765       C  0.37340247  0.86940357  0.66068408    -0.02290
C1766       C  0.38823106  0.85491032  0.69101455     0.07390
C1767       C  0.41977693  0.86772553  0.70400180    -0.02400
C1768       C  0.43565901  0.89607749  0.68746977    -0.02410
C1769       C  0.42048799  0.91069814  0.65716204     0.07520
C1770       C  0.39015198  0.89638054  0.64314915    -0.02600
Br1771     Br  0.37145397  0.91407601  0.59989423    -0.01150
Br1772     Br  0.32942525  0.85361991  0.64332085    -0.01220
Br1773     Br  0.47652043  0.91596093  0.70844087    -0.01180
Br1774     Br  0.43932455  0.84868802  0.74634442    -0.01160
C1775       C  0.31728651  0.07297531  0.90199800    -0.02290
C1776       C  0.29330733  0.04572462  0.89783191     0.07390
C1777       C  0.27208370  0.04558716  0.86771025    -0.02400
C1778       C  0.27718097  0.07002709  0.84068473    -0.02410
C1779       C  0.29982748  0.09860108  0.84544947     0.07520
C1780       C  0.31939283  0.10000301  0.87709395    -0.02600
Br1781     Br  0.35110484  0.13766830  0.88727117    -0.01150
Br1782     Br  0.34947185  0.07224490  0.94068543    -0.01220
Br1783     Br  0.25364763  0.06238656  0.79702028    -0.01180
Br1784     Br  0.23478566  0.01223273  0.86380190    -0.01160
C1785       C  0.32949857  0.88962586  0.84829383    -0.02290
C1786       C  0.30305036  0.86446489  0.85065357     0.07390
C1787       C  0.27999923  0.86587322  0.87934110    -0.02400
C1788       C  0.28133706  0.89340826  0.90352090    -0.02410
C1789       C  0.30785284  0.91852697  0.90131929     0.07520
C1790       C  0.33277539  0.91549647  0.87421707    -0.02600
Br1791     Br  0.37232406  0.94620269  0.87322016    -0.01150
Br1792     Br  0.36222649  0.88781534  0.81024450    -0.01220
Br1793     Br  0.24498811  0.89776948  0.93802449    -0.01180
Br1794     Br  0.24582929  0.83035909  0.88573556    -0.01160
C1795       C  0.57090128  0.99537055  0.39781874    -0.02290
C1796       C  0.58975711  0.98650751  0.36779690     0.07390
C1797       C  0.57268907  0.97402618  0.33792310    -0.02400
C1798       C  0.53659309  0.97118828  0.33779476    -0.02410
C1799       C  0.51750123  0.98098842  0.36754377     0.07520
C1800       C  0.53455841  0.99260736  0.39769278    -0.02600
Br1801     Br  0.50798780  0.00502674  0.43839970    -0.01150
Br1802     Br  0.59489985  0.01142339  0.43868565    -0.01220
Br1803     Br  0.51365882  0.95613293  0.29561310    -0.01180
Br1804     Br  0.59831582  0.96242716  0.29612944    -0.01160
C1805       C  0.68114335  0.06704011  0.29828173    -0.02290
C1806       C  0.68813851  0.05858104  0.33329127     0.07390
C1807       C  0.70790403  0.08108117  0.35399441    -0.02400
C1808       C  0.72296365  0.11055737  0.33885217    -0.02410
C1809       C  0.72061307  0.11553824  0.30264486     0.07520
C1810       C  0.69857176  0.09478257  0.28256334    -0.02600
Br1811     Br  0.69218494  0.10464447  0.23380130    -0.01150
Br1812     Br  0.64650946  0.04212626  0.27233631    -0.01220
Br1813     Br  0.74434619  0.14535534  0.36780625    -0.01180
Br1814     Br  0.71375156  0.07170416  0.40288277    -0.01160
C1815       C  0.70763522  0.86861915  0.34231539    -0.02290
C1816       C  0.71317264  0.86532651  0.30647761     0.07390
C1817       C  0.70731254  0.89369199  0.28440147    -0.02400
C1818       C  0.69962981  0.92641643  0.29836450    -0.02410
C1819       C  0.69647987  0.93049299  0.33483068     0.07520
C1820       C  0.70043302  0.90129107  0.35674568    -0.02600
Br1821     Br  0.69709401  0.90614243  0.40662861    -0.01150
Br1822     Br  0.70772201  0.82794994  0.37101617    -0.01220
Br1823     Br  0.69296619  0.96461623  0.26660048    -0.01180
Br1824     Br  0.70633816  0.88636481  0.23488334    -0.01160
C1825       C  0.83639428  0.05103969  0.12895016    -0.02290
C1826       C  0.82053750  0.05307963  0.09568568     0.07390
C1827       C  0.80511465  0.08516902  0.08633160    -0.02400
C1828       C  0.80718863  0.11416980  0.10901212    -0.02410
C1829       C  0.81653952  0.10955742  0.14500691     0.07520
C1830       C  0.82910335  0.07614706  0.15465447    -0.02600
Br1831     Br  0.83262292  0.06107087  0.20251997    -0.01150
Br1832     Br  0.86987959  0.01477282  0.13945546    -0.01220
Br1833     Br  0.79637344  0.15905390  0.08837548    -0.01180
Br1834     Br  0.77796417  0.08955154  0.04419755    -0.01160
C1835       C  0.78808922  0.90612484  0.16202471    -0.02290
C1836       C  0.80702855  0.87533647  0.15614386     0.07390
C1837       C  0.82434190  0.87209486  0.12372525    -0.02400
C1838       C  0.82163267  0.89821714  0.09773585    -0.02410
C1839       C  0.79857969  0.92672940  0.10211706     0.07520
C1840       C  0.78029097  0.92896453  0.13423504    -0.02600
Br1841     Br  0.74290849  0.96215669  0.14043332    -0.01150
Br1842     Br  0.77985398  0.92164121  0.20865641    -0.01220
Br1843     Br  0.85199079  0.89564575  0.05771324    -0.01180
Br1844     Br  0.85636145  0.83439779  0.11679308    -0.01160
C1845       C  0.71822114  0.48154606  0.00969221    -0.02290
C1846       C  0.69067497  0.45954073  0.00100685     0.07390
C1847       C  0.65669173  0.47274588  0.99742136    -0.02400
C1848       C  0.65054394  0.50839052  0.00229913    -0.02410
C1849       C  0.67787232  0.52980825  0.01345418     0.07520
C1850       C  0.71141851  0.51579396  0.01891227    -0.02600
Br1851     Br  0.74888405  0.54277136  0.03851743    -0.01150
Br1852     Br  0.76570589  0.46637054  0.00494024    -0.01220
Br1853     Br  0.60512081  0.52801923  0.99393832    -0.01180
Br1854     Br  0.61927564  0.44225546  0.98453748    -0.01160
C1855       C  0.71904494  0.31459931  0.11255528    -0.02290
C1856       C  0.75274462  0.32437143  0.12317051     0.07390
C1857       C  0.77177409  0.34816764  0.10347940    -0.02400
C1858       C  0.75704052  0.36284942  0.07370361    -0.02410
C1859       C  0.72276556  0.35425902  0.06386024     0.07520
C1860       C  0.70368939  0.33020085  0.08335268    -0.02600
Br1861     Br  0.65696836  0.31844410  0.06960019    -0.01150
Br1862     Br  0.69444900  0.27878691  0.13688524    -0.01220
Br1863     Br  0.78540481  0.39267405  0.04556010    -0.01180
Br1864     Br  0.81927858  0.35790123  0.11512675    -0.01160
C1865       C  0.77237726  0.31669175  0.90992780    -0.02290
C1866       C  0.75742122  0.32328484  0.87716945     0.07390
C1867       C  0.72890631  0.34635588  0.87455542    -0.02400
C1868       C  0.71261445  0.35880731  0.90479500    -0.02410
C1869       C  0.72815031  0.35300050  0.93762936     0.07520
C1870       C  0.75917243  0.33297080  0.93964774    -0.02600
Br1871     Br  0.78620713  0.32882849  0.98187472    -0.01150
Br1872     Br  0.81257346  0.28669044  0.91441479    -0.01220
Br1873     Br  0.66764261  0.38135964  0.90069963    -0.01180
Br1874     Br  0.71246895  0.36246129  0.83017181    -0.01160
C1875       C  0.96466533  0.21503844  0.09171657    -0.02290
C1876       C  0.96187012  0.23943132  0.06424445     0.07390
C1877       C  0.93377587  0.26350447  0.06524443    -0.02400
C1878       C  0.90724582  0.26062523  0.09060644    -0.02410
C1879       C  0.91040967  0.23702218  0.11848915     0.07520
C1880       C  0.94017567  0.21510589  0.11935527    -0.02600
Br1881     Br  0.94701857  0.18378869  0.15780914    -0.01150
Br1882     Br  0.00044866  0.17963957  0.09077019    -0.01220
Br1883     Br  0.86623556  0.28881902  0.08648058    -0.01180
Br1884     Br  0.93214759  0.30177348  0.03259246    -0.01160
C1885       C  0.92617789  0.20562025  0.93849585    -0.02290
C1886       C  0.95877292  0.22254655  0.93670360     0.07390
C1887       C  0.96593137  0.24275492  0.90683266    -0.02400
C1888       C  0.94177787  0.24445791  0.87895221    -0.02410
C1889       C  0.90766371  0.22977251  0.88227728     0.07520
C1890       C  0.89965600  0.21312471  0.91424617    -0.02600
Br1891     Br  0.85239021  0.20407863  0.92876305    -0.01150
Br1892     Br  0.91788527  0.17023494  0.97333533    -0.01220
Br1893     Br  0.95626303  0.27011207  0.83793742    -0.01180
Br1894     Br  0.00772561  0.27055976  0.90460322    -0.01160
C1895       C  0.38586571  0.47421440  0.99236538    -0.02290
C1896       C  0.41596676  0.45323649  0.99280064     0.07390
C1897       C  0.44923825  0.46801149  0.99355889    -0.02400
C1898       C  0.45235711  0.50424617  0.99446937    -0.02410
C1899       C  0.42213559  0.52498276  0.99513731     0.07520
C1900       C  0.38894757  0.51007341  0.99416651    -0.02600
Br1901     Br  0.34746019  0.53851319  0.99535741    -0.01150
Br1902     Br  0.34008209  0.45438141  0.98857440    -0.01220
Br1903     Br  0.49760035  0.52555817  0.99531704    -0.01180
Br1904     Br  0.48997604  0.43862733  0.99362115    -0.01160
C1905       C  0.40413486  0.61684894  0.09175748    -0.02290
C1906       C  0.40253864  0.63476074  0.05945304     0.07390
C1907       C  0.37947983  0.66382311  0.05698745    -0.02400
C1908       C  0.35590595  0.67100451  0.08403468    -0.02410
C1909       C  0.35683114  0.65182106  0.11569924     0.07520
C1910       C  0.37895392  0.62259376  0.11770610    -0.02600
Br1911     Br  0.37249404  0.58728484  0.15296518    -0.01150
Br1912     Br  0.44358705  0.58723610  0.10275980    -0.01220
Br1913     Br  0.32012977  0.70592339  0.07502776    -0.01180
Br1914     Br  0.38063678  0.69815196  0.01990457    -0.01160
C1915       C  0.41992338  0.63483891  0.90243937    -0.02290
C1916       C  0.40343772  0.63132819  0.93478649     0.07390
C1917       C  0.36719981  0.63745848  0.93765153    -0.02400
C1918       C  0.34824332  0.64909130  0.90883482    -0.02410
C1919       C  0.36436862  0.65113233  0.87603005     0.07520
C1920       C  0.40046813  0.64499113  0.87321567    -0.02600
Br1921     Br  0.42441131  0.65528205  0.83086096    -0.01150
Br1922     Br  0.46921468  0.62590703  0.89845990    -0.01220
Br1923     Br  0.30086251  0.66499118  0.91545688    -0.01180
Br1924     Br  0.34194267  0.62750307  0.97987075    -0.01160
C1925       C  0.17660273  0.70219332  0.06909054    -0.02290
C1926       C  0.15032406  0.72810949  0.06657616     0.07390
C1927       C  0.15036710  0.75550730  0.09091167    -0.02400
C1928       C  0.17611756  0.75685164  0.11705472    -0.02410
C1929       C  0.20390493  0.73262081  0.11778974     0.07520
C1930       C  0.20398725  0.70529192  0.09340930    -0.02600
Br1931     Br  0.24056841  0.67085816  0.09427441    -0.01150
Br1932     Br  0.17457199  0.66165513  0.03960413    -0.01220
Br1933     Br  0.17332464  0.79249083  0.15182998    -0.01180
Br1934     Br  0.11670035  0.79277109  0.08735802    -0.01160
C1935       C  0.18487623  0.75808979  0.94060651    -0.02290
C1936       C  0.15289789  0.73974989  0.93942337     0.07390
C1937       C  0.14798058  0.71608944  0.91181073    -0.02400
C1938       C  0.17334294  0.71269877  0.88512299    -0.02410
C1939       C  0.20549567  0.73104620  0.88675540     0.07520
C1940       C  0.21216161  0.75021898  0.91727409    -0.02600
Br1941     Br  0.25922624  0.75890881  0.93231046    -0.01150
Br1942     Br  0.19167933  0.79515068  0.97375893    -0.01220
Br1943     Br  0.16556207  0.67828592  0.84942382    -0.01180
Br1944     Br  0.10779400  0.68610609  0.91157633    -0.01160
loop_ 
_geom_bond_atom_site_label_1 
_geom_bond_atom_site_label_2 
_geom_bond_distance 
_geom_bond_site_symmetry_2 
_ccdc_geom_bond_type 
C1            C2   1.394   1_556  A
C1            C6   1.424       .  A
C1         C1936   1.515       .  S
C2            C3   1.392       .  A
C2            H7   1.084       .  S
C3            C4   1.417       .  A
C3         C1926   1.502       .  S
C4            C5   1.426       .  A
C4            H8   1.081       .  S
C5            C6   1.434   1_554  A
C5           C75   1.537       .  S
C6            H9   1.081       .  S
C10          C11   1.413   1_554  A
C10          C15   1.410       .  A
C10        C1906   1.515       .  S
C11          C12   1.404       .  A
C11          H16   1.070       .  S
C12          C13   1.386       .  A
C12        C1916   1.472       .  S
C13          C14   1.384       .  A
C13          H17   1.085       .  S
C14          C15   1.393   1_556  A
C14        C1899   1.450       .  S
C15          H18   1.080       .  S
C19          C20   1.394       .  A
C19          C24   1.420   1_655  A
C19        C1876   1.515       .  S
C20          C21   1.396   1_554  A
C20          H25   1.083       .  S
C21          C22   1.418   1_655  A
C21        C1886   1.514       .  S
C22          C23   1.430       .  A
C22          H26   1.078       .  S
C23          C24   1.434   1_556  A
C23          C93   1.546       .  S
C24          H27   1.077       .  S
C28          C29   1.404   1_556  A
C28          C33   1.405       .  A
C28        C1869   1.485       .  S
C29          C30   1.397       .  A
C29          H34   1.083       .  S
C30          C31   1.391       .  A
C30        C1859   1.465       .  S
C31          C32   1.394       .  A
C31          H35   1.085       .  S
C32          C33   1.396   1_554  A
C32        C1846   1.457       .  S
C33          H36   1.083       .  S
C37          C38   1.394       .  A
C37          C42   1.421       .  A
C37        C1839   1.520       .  S
C38          C39   1.397   1_565  A
C38          H43   1.079       .  S
C39          C40   1.422       .  A
C39        C1826   1.520       .  S
C40          C41   1.429   1_545  A
C40          H44   1.080       .  S
C41          C42   1.433       .  A
C41         C111   1.542   1_554  S
C42          H45   1.079       .  S
C46          C47   1.404   1_545  A
C46          C51   1.396       .  A
C46        C1806   1.465       .  S
C47          C48   1.402       .  A
C47          H52   1.084       .  S
C48          C49   1.395       .  A
C48        C1819   1.475       .  S
C49          C50   1.392       .  A
C49          H53   1.085       .  S
C50          C51   1.396   1_565  A
C50        C1796   1.459       .  S
C51          H54   1.084       .  S
C55          C56   1.395   1_545  A
C55          C60   1.420       .  A
C55        C1776   1.505       .  S
C56          C57   1.392       .  A
C56          H61   1.084       .  S
C57          C58   1.418       .  A
C57        C1789   1.504       .  S
C58          C59   1.428       .  A
C58          H62   1.081       .  S
C59          C60   1.426   1_565  A
C59         C131   1.531   1_556  S
C60          H63   1.081       .  S
C64          C65   1.403       .  A
C64          C69   1.394       .  A
C64        C1769   1.470       .  S
C65          C66   1.400   1_565  A
C65          H70   1.084       .  S
C66          C67   1.395       .  A
C66        C1756   1.479       .  S
C67          C68   1.392   1_545  A
C67          H71   1.085       .  S
C68          C69   1.394       .  A
C68        C1746   1.454       .  S
C69          H72   1.085       .  S
C73          C74   1.429   1_655  A
C73          C78   1.397       .  A
C73        C1726   1.525       .  S
C74          C75   1.433       .  A
C74          H79   1.080       .  S
C75          C76   1.423   1_554  A
C76          C77   1.414   1_455  A
C76          H80   1.081       .  S
C77          C78   1.394   1_556  A
C77        C1739   1.502       .  S
C78          H81   1.082       .  S
C82          C83   1.398       .  A
C82          C87   1.398       .  A
C82        C1709   1.473       .  S
C83          C84   1.396       .  A
C83          H88   1.085       .  S
C84          C85   1.398   1_554  A
C84        C1849   1.460       .  S
C85          C86   1.393       .  A
C85          H89   1.085       .  S
C86          C87   1.401   1_556  A
C86        C1719   1.473       .  S
C87          H90   1.084       .  S
C91          C92   1.418       .  A
C91          C96   1.391       .  A
C91        C1699   1.504       .  S
C92          C93   1.434       .  A
C92          H97   1.078       .  S
C93          C94   1.431   1_556  A
C94          C95   1.418       .  A
C94          H98   1.077       .  S
C95          C96   1.394   1_554  A
C95        C1686   1.505       .  S
C96          H99   1.085       .  S
C100        C101   1.397       .  A
C100        C105   1.403       .  A
C100       C1676   1.469       .  S
C101        C102   1.394       .  A
C101        H106   1.084       .  S
C102        C103   1.392   1_556  A
C102       C1896   1.450       .  S
C103        C104   1.389       .  A
C103        H107   1.085       .  S
C104        C105   1.396   1_554  A
C104       C1669   1.457       .  S
C105        H108   1.084       .  S
C109        C110   1.414       .  A
C109        C114   1.401       .  A
C109       C1659   1.506       .  S
C110        C111   1.428       .  A
C110        H115   1.079       .  S
C111        C112   1.436   1_565  A
C112        C113   1.427       .  A
C112        H116   1.080       .  S
C113        C114   1.401   1_545  A
C113       C1646   1.528       .  S
C114        H117   1.084       .  S
C118        C119   1.396       .  A
C118        C123   1.401   1_545  A
C118       C1626   1.475       .  S
C119        C120   1.390   1_545  A
C119        H124   1.085       .  S
C120        C121   1.390       .  A
C120       C1749   1.453       .  S
C121        C122   1.393       .  A
C121        H125   1.085       .  S
C122        C123   1.403       .  A
C122       C1639   1.465       .  S
C123        H126   1.084       .  S
C127        C128   1.395   1_545  A
C127        C132   1.421       .  A
C127       C1606   1.514       .  S
C128        C129   1.396       .  A
C128        H133   1.080       .  S
C129        C130   1.419       .  A
C129       C1616   1.514       .  S
C130        C131   1.425       .  A
C130        H134   1.081       .  S
C131        C132   1.428   1_565  A
C132        H135   1.081       .  S
C136        C137   1.399       .  A
C136        C141   1.404       .  A
C136       C1599   1.479       .  S
C137        C138   1.394       .  A
C137        H142   1.085       .  S
C138        C139   1.393   1_565  A
C138       C1799   1.459       .  S
C139        C140   1.391       .  A
C139        H143   1.085       .  S
C140        C141   1.402   1_545  A
C140       C1586   1.463       .  S
C141        H144   1.084       .  S
C145        C146   1.421       .  A
C145        C150   1.399       .  A
C145       C1576   1.510   1_455  S
C146        C147   1.426       .  A
C146        H151   1.080   1_455  S
C147        C148   1.436       .  A
C147        C165   1.545   1_545  S
C148        C149   1.417       .  A
C148        H152   1.077       .  S
C149        C150   1.393       .  A
C149       C1566   1.507       .  S
C150        H153   1.084       .  S
C154        C155   1.397       .  A
C154        C159   1.390       .  A
C154       C1559   1.464   1_455  S
C155        C156   1.410       .  A
C155        H160   1.083       .  S
C156        C157   1.400       .  A
C156       C1549   1.490       .  S
C157        C158   1.399       .  A
C157        H161   1.080       .  S
C158        C159   1.396       .  A
C158       C1539   1.457       .  S
C159        H162   1.084   1_455  S
C163        C164   1.405       .  A
C163        C168   1.390       .  A
C163       C1516   1.486       .  S
C164        C165   1.422       .  A
C164        H169   1.077       .  S
C165        C166   1.441       .  A
C166        C167   1.432       .  A
C166        H170   1.079   1_455  S
C167        C168   1.397       .  A
C167       C1526   1.524   1_455  S
C168        H171   1.085       .  S
C172        C173   1.403       .  A
C172        C177   1.393       .  A
C172       C1506   1.472   1_455  S
C173        C174   1.401       .  A
C173        H178   1.084       .  S
C174        C175   1.391       .  A
C174       C1496   1.470       .  S
C175        C176   1.388       .  A
C175        H179   1.085       .  S
C176        C177   1.395       .  A
C176       C1489   1.447       .  S
C177        H180   1.085       .  S
C181        C182   1.400       .  A
C181        C186   1.429       .  A
C181       C1476   1.525       .  S
C182        C183   1.397       .  A
C182        H187   1.084       .  S
C183        C184   1.409       .  A
C183       C1466   1.496   1_455  S
C184        C185   1.424       .  A
C184        H188   1.078   1_455  S
C185        C186   1.439       .  A
C185        C201   1.545   1_565  S
C186        H189   1.079       .  S
C190        C191   1.390       .  A
C190        C195   1.406       .  A
C190       C1456   1.475       .  S
C191        C192   1.389       .  A
C191        H196   1.085       .  S
C192        C193   1.387       .  A
C192       C1486   1.447       .  S
C193        C194   1.395       .  A
C193        H197   1.083       .  S
C194        C195   1.407       .  A
C194       C1446   1.487   1_455  S
C195        H198   1.081       .  S
C199        C200   1.421       .  A
C199        C204   1.392       .  A
C199       C1436   1.518   1_455  S
C200        C201   1.438       .  A
C200        H205   1.078       .  S
C201        C202   1.428       .  A
C202        C203   1.418       .  A
C202        H206   1.079       .  S
C203        C204   1.396       .  A
C203       C1426   1.508       .  S
C204        H207   1.083       .  S
C208        C209   1.401       .  A
C208        C213   1.399       .  A
C208       C1406   1.478       .  S
C209        C210   1.400       .  A
C209        H214   1.084       .  S
C210        C211   1.393       .  A
C210       C1419   1.466   1_455  S
C211        C212   1.393       .  A
C211        H215   1.085       .  S
C212        C213   1.394       .  A
C212       C1536   1.460       .  S
C213        H216   1.085       .  S
C217        C218   1.391       .  A
C217        C222   1.421       .  A
C217       C1386   1.506       .  S
C218        C219   1.392       .  A
C218        H223   1.085       .  S
C219        C220   1.421       .  A
C219       C1396   1.507       .  S
C220        C221   1.437       .  A
C220        H224   1.077       .  S
C221        C222   1.436       .  A
C221        C381   1.554       .  S
C222        H225   1.078       .  S
C226        C227   1.401       .  A
C226        C231   1.390       .  A
C226       C1379   1.458       .  S
C227        C228   1.403       .  A
C227        H232   1.082       .  S
C228        C229   1.402       .  A
C228       C1366   1.485       .  S
C229        C230   1.392       .  A
C229        H233   1.084       .  S
C230        C231   1.389       .  A
C230       C1359   1.454       .  S
C231        H234   1.085       .  S
O235       Zr271   2.501       .  S
O235        C246   1.303       .  A
O236       Zr270   2.454       .  S
O236        C247   1.295       .  A
O237       Zr243   2.442       .  S
O237        C248   1.292       .  A
O238       Zr243   2.510       .  S
O238        C249   1.305       .  A
O239       Zr273   2.444       .  S
O239        C249   1.292       .  A
O240       Zr272   2.396       .  S
O240        C248   1.285       .  A
O241       Zr243   2.408       .  S
O241        C247   1.287       .  A
O242       Zr243   2.418       .  S
O242        C246   1.287       .  A
Zr243       O244   2.333       .  S
Zr243       O245   2.347       .  S
Zr243       O253   2.324       .  S
Zr243       O251   2.366       .  S
O244       Zr270   2.365       .  S
O244       Zr273   2.350       .  S
O245       Zr271   2.322       .  S
O245       Zr272   2.360       .  S
C246       C1929   1.497       .  S
C247       C1459   1.478       .  S
C248       C1369   1.467       .  S
C249       C1479   1.516       .  S
H250        O251   0.965       .  S
O251       Zr270   2.344       .  S
O251       Zr272   2.339       .  S
H252        O253   0.966       .  S
O253       Zr271   2.325       .  S
O253       Zr273   2.328       .  S
O254       Zr270   2.508       .  S
O254        C277   1.305       .  A
O255       Zr271   2.445       .  S
O255        C278   1.293       .  A
O256       Zr272   2.508       .  S
O256        C279   1.305       .  A
O257       Zr273   2.440       .  S
O257        C280   1.292       .  A
O258       Zr273   2.501       .  S
O258        C281   1.302       .  A
O259       Zr272   2.476       .  S
O259        C282   1.297       .  A
O260       Zr274   2.485       .  S
O260        C283   1.300       .  A
O261       Zr274   2.449       .  S
O261        C284   1.294       .  A
O262       Zr272   2.427       .  S
O262        C283   1.289       .  A
O263       Zr273   2.410       .  S
O263        C284   1.288       .  A
O264       Zr270   2.433       .  S
O264        C279   1.291       .  A
O265       Zr271   2.383       .  S
O265        C282   1.279       .  A
O266       Zr271   2.403       .  S
O266        C281   1.280       .  A
O267       Zr270   2.424       .  S
O267        C280   1.291       .  A
O268       Zr274   2.432       .  S
O268        C277   1.288       .  A
O269       Zr274   2.425       .  S
O269        C278   1.291       .  A
Zr270       O276   2.330       .  S
Zr270       O288   2.338       .  S
Zr271       O275   2.340       .  S
Zr271       O286   2.360       .  S
Zr272       O276   2.332       .  S
Zr272       O286   2.342       .  S
Zr273       O275   2.336       .  S
Zr273       O288   2.376       .  S
Zr274       O275   2.359       .  S
Zr274       O276   2.330       .  S
Zr274       O288   2.349       .  S
Zr274       O286   2.339       .  S
C277       C1339   1.528       .  S
C278       C1326   1.471       .  S
C279       C1389   1.510       .  S
C280       C1349   1.463       .  S
C281       C1619   1.523       .  S
C282       C1909   1.499       .  S
C283       C1316   1.491       .  S
C284       C1596   1.461       .  S
H285        O286   0.966       .  S
H287        O288   0.965       .  S
C289        C290   1.391       .  A
C289        C294   1.419       .  A
C289       C1309   1.507       .  S
C290        C291   1.389       .  A
C290        H295   1.084       .  S
C291        C292   1.419       .  A
C291       C1299   1.506       .  S
C292        C293   1.432       .  A
C292        H296   1.077       .  S
C293        C294   1.434       .  A
C293        C741   1.547       .  S
C294        H297   1.077       .  S
C298        C299   1.396       .  A
C298        C303   1.395       .  A
C298       C1286   1.459       .  S
C299        C300   1.389       .  A
C299        H304   1.085       .  S
C300        C301   1.396       .  A
C300       C1279   1.457       .  S
C301        C302   1.401       .  A
C301        H305   1.085       .  S
C302        C303   1.397       .  A
C302       C1269   1.460       .  S
C303        H306   1.084       .  S
O307       Zr343   2.506       .  S
O307        C318   1.304       .  A
O308       Zr342   2.437       .  S
O308        C319   1.291       .  A
O309       Zr315   2.456       .  S
O309        C320   1.295       .  A
O310       Zr315   2.489       .  S
O310        C321   1.301       .  A
O311       Zr345   2.434       .  S
O311        C321   1.291       .  A
O312       Zr344   2.400       .  S
O312        C320   1.285       .  A
O313       Zr315   2.401       .  S
O313        C319   1.284       .  A
O314       Zr315   2.403       .  S
O314        C318   1.283       .  A
Zr315       O316   2.333       .  S
Zr315       O317   2.338       .  S
Zr315       O325   2.329       .  S
Zr315       O323   2.359       .  S
O316       Zr342   2.357       .  S
O316       Zr345   2.343       .  S
O317       Zr343   2.336       .  S
O317       Zr344   2.363       .  S
C318       C1779   1.514       .  S
C319       C1679   1.475       .  S
C320       C1236   1.460       .  S
C321       C1696   1.502       .  S
H322        O323   0.965       .  S
O323       Zr342   2.342       .  S
O323       Zr344   2.332       .  S
H324        O325   0.966       .  S
O325       Zr343   2.325       .  S
O325       Zr345   2.322       .  S
O326       Zr342   2.495       .  S
O326        C349   1.302       .  A
O327       Zr343   2.449       .  S
O327        C350   1.294       .  A
O328       Zr344   2.530       .  S
O328        C351   1.308       .  A
O329       Zr345   2.446       .  S
O329        C352   1.292       .  A
O330       Zr345   2.501       .  S
O330        C353   1.303       .  A
O331       Zr344   2.468       .  S
O331        C354   1.298       .  A
O332       Zr346   2.498       .  S
O332        C355   1.302       .  A
O333       Zr346   2.447       .  S
O333        C356   1.291       .  A
O334       Zr344   2.419       .  S
O334        C355   1.288       .  A
O335       Zr345   2.387       .  S
O335        C356   1.281       .  A
O336       Zr342   2.402       .  S
O336        C351   1.280       .  A
O337       Zr343   2.397       .  S
O337        C354   1.285       .  A
O338       Zr343   2.448       .  S
O338        C353   1.293       .  A
O339       Zr342   2.401       .  S
O339        C352   1.284       .  A
O340       Zr346   2.435       .  S
O340        C349   1.290       .  A
O341       Zr346   2.384       .  S
O341        C350   1.283       .  A
Zr342       O348   2.328       .  S
Zr342       O360   2.319       .  S
Zr343       O347   2.339       .  S
Zr343       O358   2.375       .  S
Zr344       O348   2.333       .  S
Zr344       O358   2.349       .  S
Zr345       O347   2.335       .  S
Zr345       O360   2.360       .  S
Zr346       O347   2.367       .  S
Zr346       O348   2.326       .  S
Zr346       O360   2.334       .  S
Zr346       O358   2.337       .  S
C349       C1249   1.498       .  S
C350       C1276   1.452       .  S
C351       C1226   1.537       .  S
C352       C1256   1.494       .  S
C353       C1569   1.507       .  S
C354       C1759   1.472       .  S
C355       C1296   1.500       .  S
C356       C1546   1.491       .  S
H357        O358   0.966       .  S
H359        O360   0.965       .  S
C361        C362   1.399       .  A
C361        C366   1.425       .  A
C361       C1336   1.520       .  S
C362        C363   1.397       .  A
C362        H367   1.085       .  S
C363        C364   1.417       .  A
C363       C1216   1.505       .  S
C364        C365   1.431       .  A
C364        H368   1.079       .  S
C365        C366   1.433       .  A
C365        C543   1.546       .  S
C366        H369   1.080       .  S
C370        C371   1.412       .  A
C370        C375   1.400       .  A
C370       C1206   1.485       .  S
C371        C372   1.400       .  A
C371        H376   1.084       .  S
C372        C373   1.394       .  A
C372       C1346   1.469       .  S
C373        C374   1.395       .  A
C373        H377   1.085       .  S
C374        C375   1.398       .  A
C374       C1266   1.459       .  S
C375        H378   1.082       .  S
C379        C380   1.425       .  A
C379        C384   1.398       .  A
C379       C1196   1.518       .  S
C380        C381   1.435       .  A
C380        H385   1.077       .  S
C381        C382   1.432       .  A
C382        C383   1.419       .  A
C382        H386   1.077       .  S
C383        C384   1.395       .  A
C383       C1246   1.504       .  S
C384        H387   1.085       .  S
C388        C389   1.407       .  A
C388        C393   1.404       .  A
C388       C1259   1.488       .  S
C389        C390   1.393       .  A
C389        H394   1.084       .  S
C390        C391   1.391       .  A
C390       C1189   1.462       .  S
C391        C392   1.397       .  A
C391        H395   1.085       .  S
C392        C393   1.403       .  A
C392       C1176   1.462       .  S
C393        H396   1.082       .  S
O397       Zr433   2.507       .  S
O397        C408   1.303       .  A
O398       Zr432   2.463       .  S
O398        C409   1.297       .  A
O399       Zr405   2.516       .  S
O399        C410   1.307       .  A
O400       Zr405   2.443       .  S
O400        C411   1.293       .  A
O401       Zr435   2.411       .  S
O401        C411   1.289       .  A
O402       Zr434   2.403       .  S
O402        C410   1.284       .  A
O403       Zr405   2.380       .  S
O403        C409   1.282       .  A
O404       Zr405   2.420       .  S
O404        C408   1.287       .  A
Zr405       O406   2.365       .  S
Zr405       O407   2.327       .  S
Zr405       O415   2.344       .  S
Zr405       O413   2.320       .  S
O406       Zr432   2.342       .  S
O406       Zr435   2.332       .  S
O407       Zr433   2.327       .  S
O407       Zr434   2.340       .  S
C408       C1939   1.520       .  S
C409       C1499   1.463       .  S
C410       C1519   1.493       .  S
C411       C1186   1.463       .  S
H412        O413   0.964       .  S
O413       Zr432   2.359       .  S
O413       Zr434   2.346       .  S
H414        O415   0.965       .  S
O415       Zr433   2.332       .  S
O415       Zr435   2.371       .  S
O416       Zr432   2.496       .  S
O416        C439   1.302       .  A
O417       Zr433   2.443       .  S
O417        C440   1.292       .  A
O418       Zr434   2.462       .  S
O418        C441   1.295       .  A
O419       Zr435   2.527       .  S
O419        C442   1.309       .  A
O420       Zr435   2.485       .  S
O420        C443   1.301       .  A
O421       Zr434   2.501       .  S
O421        C444   1.303       .  A
O422       Zr436   2.439       .  S
O422        C445   1.293       .  A
O423       Zr436   2.500       .  S
O423        C446   1.303       .  A
O424       Zr434   2.407       .  S
O424        C445   1.287       .  A
O425       Zr435   2.410       .  S
O425        C446   1.284       .  A
O426       Zr432   2.410       .  S
O426        C441   1.286       .  A
O427       Zr433   2.422       .  S
O427        C444   1.288       .  A
O428       Zr433   2.375       .  S
O428        C443   1.281       .  A
O429       Zr432   2.414       .  S
O429        C442   1.284       .  A
O430       Zr436   2.444       .  S
O430        C439   1.292       .  A
O431       Zr436   2.412       .  S
O431        C440   1.289       .  A
Zr432       O438   2.333       .  S
Zr432       O450   2.324       .  S
Zr433       O437   2.360       .  S
Zr433       O448   2.349       .  S
Zr434       O438   2.359       .  S
Zr434       O448   2.333       .  S
Zr435       O437   2.339       .  S
Zr435       O450   2.329       .  S
Zr436       O437   2.330       .  S
Zr436       O438   2.344       .  S
Zr436       O450   2.320       .  S
Zr436       O448   2.367       .  S
C439       C1219   1.502       .  S
C440       C1166   1.477       .  S
C441       C1209   1.493       .  S
C442       C1199   1.529       .  S
C443       C1919   1.468       .  S
C444       C1786   1.499       .  S
C445       C1766   1.463       .  S
C446       C1156   1.514       .  S
H447        O448   0.966       .  S
H449        O450   0.965       .  S
C451        C452   1.392       .  A
C451        C456   1.418       .  A
C451       C1146   1.504       .  S
C452        C453   1.393       .  A
C452        H457   1.085       .  S
C453        C454   1.419       .  A
C453       C1136   1.498       .  S
C454        C455   1.433       .  A
C454        H458   1.078       .  S
C455        C456   1.435       .  A
C455        C581   1.550       .  S
C456        H459   1.077       .  S
C460        C461   1.392       .  A
C460        C465   1.397       .  A
C460       C1116   1.471       .  S
C461        C462   1.392       .  A
C461        H466   1.085       .  S
C462        C463   1.397       .  A
C462       C1356   1.458   1_655  S
C463        C464   1.399       .  A
C463        H467   1.083       .  S
C464        C465   1.406       .  A
C464       C1129   1.485       .  S
C465        H468   1.083       .  S
C469        C470   1.395       .  A
C469        C474   1.426       .  A
C469       C1106   1.516       .  S
C470        C471   1.387       .  A
C470        H475   1.085       .  S
C471        C472   1.409       .  A
C471       C1319   1.488       .  S
C472        C473   1.428       .  A
C472        H476   1.077       .  S
C473        C474   1.436       .  A
C473        C651   1.545       .  S
C474        H477   1.078       .  S
C478        C479   1.389       .  A
C478        C483   1.395       .  A
C478       C1096   1.467       .  S
C479        C480   1.396       .  A
C479        H484   1.085       .  S
C480        C481   1.402       .  A
C480       C1329   1.477       .  S
C481        C482   1.413       .  A
C481        H485   1.084       .  S
C482        C483   1.401       .  A
C482       C1086   1.488       .  S
C483        H486   1.079       .  S
O487       Zr523   2.517       .  S
O487        C498   1.306       .  A
O488       Zr522   2.446       .  S
O488        C499   1.293       .  A
O489       Zr495   2.533       .  S
O489        C500   1.308       .  A
O490       Zr495   2.471       .  S
O490        C501   1.299       .  A
O491       Zr525   2.394       .  S
O491        C501   1.283       .  A
O492       Zr524   2.395       .  S
O492        C500   1.278       .  A
O493       Zr495   2.399       .  S
O493        C499   1.286       .  A
O494       Zr495   2.429       .  S
O494        C498   1.290       .  A
Zr495       O496   2.364       .  S
Zr495       O497   2.327       .  S
Zr495       O505   2.352       .  S
Zr495       O503   2.338       .  S
O496       Zr522   2.338       .  S
O496       Zr525   2.333       .  S
O497       Zr523   2.329       .  S
O497       Zr524   2.327       .  S
C498       C1836   1.516       .  S
C499       C1706   1.456       .  S
C500       C1729   1.536       .  S
C501       C1099   1.476       .  S
H502        O503   0.965       .  S
O503       Zr522   2.364       .  S
O503       Zr524   2.342       .  S
H504        O505   0.965       .  S
O505       Zr523   2.332       .  S
O505       Zr525   2.375       .  S
O506       Zr522   2.495       .  S
O506        C529   1.302       .  A
O507       Zr523   2.457       .  S
O507        C530   1.296       .  A
O508       Zr524   2.446       .  S
O508        C531   1.293       .  A
O509       Zr525   2.499       .  S
O509        C532   1.302       .  A
O510       Zr525   2.446       .  S
O510        C533   1.292       .  A
O511       Zr524   2.503       .  S
O511        C534   1.304       .  A
O512       Zr526   2.450       .  S
O512        C535   1.294       .  A
O513       Zr526   2.492       .  S
O513        C536   1.301       .  A
O514       Zr524   2.391       .  S
O514        C535   1.281       .  A
O515       Zr525   2.440       .  S
O515        C536   1.292       .  A
O516       Zr522   2.405       .  S
O516        C531   1.287       .  A
O517       Zr523   2.425       .  S
O517        C534   1.288       .  A
O518       Zr523   2.411       .  S
O518        C533   1.288       .  A
O519       Zr522   2.412       .  S
O519        C532   1.283       .  A
O520       Zr526   2.444       .  S
O520        C529   1.292       .  A
O521       Zr526   2.389       .  S
O521        C530   1.284       .  A
Zr522       O528   2.332       .  S
Zr522       O540   2.328       .  S
Zr523       O527   2.369       .  S
Zr523       O538   2.350       .  S
Zr524       O528   2.358       .  S
Zr524       O538   2.321       .  S
Zr525       O527   2.341       .  S
Zr525       O540   2.324       .  S
Zr526       O527   2.345       .  S
Zr526       O528   2.337       .  S
Zr526       O540   2.324       .  S
Zr526       O538   2.368       .  S
C529       C1139   1.504       .  S
C530       C1079   1.456       .  S
C531       C1119   1.460       .  S
C532       C1109   1.525       .  S
C533       C1816   1.462       .  S
C534       C1469   1.498       .  S
C535       C1449   1.487       .  S
C536       C1066   1.505       .  S
H537        O538   0.965       .  S
H539        O540   0.966       .  S
C541        C542   1.420       .  A
C541        C546   1.392       .  A
C541       C1056   1.505       .  S
C542        C543   1.433       .  A
C542        H547   1.079       .  S
C543        C544   1.433       .  A
C544        C545   1.423       .  A
C544        H548   1.080       .  S
C545        C546   1.393       .  A
C545       C1069   1.512       .  S
C546        H549   1.085       .  S
C550        C551   1.413       .  A
C550        C555   1.394       .  A
C550       C1046   1.477       .  S
C551        C552   1.415       .  A
C551        H556   1.083       .  S
C552        C553   1.394       .  A
C552       C1036   1.484       .  S
C553        C554   1.386       .  A
C553        H557   1.083       .  S
C554        C555   1.384       .  A
C554       C1076   1.450       .  S
C555        H558   1.084       .  S
C559        C560   1.393       .  A
C559        C564   1.417       .  A
C559       C1026   1.505       .  S
C560        C561   1.399       .  A
C560        H565   1.085       .  S
C561        C562   1.421       .  A
C561       C1159   1.509       .  S
C562        C563   1.427       .  A
C562        H566   1.079       .  S
C563        C564   1.435       .  A
C563        C723   1.543       .  S
C564        H567   1.079       .  S
C568        C569   1.416       .  A
C568        C573   1.402       .  A
C568       C1169   1.499       .  S
C569        C570   1.411       .  A
C569        H574   1.083       .  S
C570        C571   1.394       .  A
C570       C1089   1.479       .  S
C571        C572   1.386       .  A
C571        H575   1.084       .  S
C572        C573   1.395       .  A
C572       C1016   1.466       .  S
C573        H576   1.080       .  S
C577        C578   1.391       .  A
C577        C582   1.414       .  A
C577        C996   1.495       .  S
C578        C579   1.392       .  A
C578        H583   1.085       .  S
C579        C580   1.423       .  A
C579       C1006   1.502       .  S
C580        C581   1.437       .  A
C580        H584   1.078       .  S
C581        C582   1.431       .  A
C582        H585   1.077       .  S
C586        C587   1.403       .  A
C586        C591   1.408       .  A
C586        C986   1.495       .  S
C587        C588   1.401       .  A
C587        H592   1.082       .  S
C588        C589   1.399       .  A
C588       C1179   1.465   1_655  S
C589        C590   1.394       .  A
C589        H593   1.085       .  S
C590        C591   1.397       .  A
C590        C976   1.480       .  S
C591        H594   1.082       .  S
O595       Zr631   2.505       .  S
O595        C606   1.305       .  A
O596       Zr630   2.444       .  S
O596        C607   1.294       .  A
O597       Zr603   2.459       .  S
O597        C608   1.293       .  A
O598       Zr603   2.514       .  S
O598        C609   1.306       .  A
O599       Zr633   2.424       .  S
O599        C609   1.289       .  A
O600       Zr632   2.402       .  S
O600        C608   1.283       .  A
O601       Zr603   2.399       .  S
O601        C607   1.285       .  A
O602       Zr603   2.395       .  S
O602        C606   1.283       .  A
Zr603       O604   2.331       .  S
Zr603       O605   2.342       .  S
Zr603       O613   2.328       .  S
Zr603       O611   2.361       .  S
O604       Zr630   2.363       .  S
O604       Zr633   2.350       .  S
O605       Zr631   2.330       .  S
O605       Zr632   2.353       .  S
C606       C1736   1.489       .  S
C607       C1509   1.462       .  S
C608        C989   1.504       .  S
C609       C1529   1.510       .  S
H610        O611   0.965       .  S
O611       Zr630   2.351       .  S
O611       Zr632   2.346       .  S
H612        O613   0.965       .  S
O613       Zr631   2.321       .  S
O613       Zr633   2.318       .  S
O614       Zr630   2.500       .  S
O614        C637   1.303       .  A
O615       Zr631   2.468       .  S
O615        C638   1.298       .  A
O616       Zr632   2.518       .  S
O616        C639   1.307       .  A
O617       Zr633   2.420       .  S
O617        C640   1.289       .  A
O618       Zr633   2.497       .  S
O618        C641   1.302       .  A
O619       Zr632   2.488       .  S
O619        C642   1.302       .  A
O620       Zr634   2.501       .  S
O620        C643   1.303       .  A
O621       Zr634   2.451       .  S
O621        C644   1.294       .  A
O622       Zr632   2.424       .  S
O622        C643   1.289       .  A
O623       Zr633   2.409       .  S
O623        C644   1.287       .  A
O624       Zr630   2.428       .  S
O624        C639   1.290       .  A
O625       Zr631   2.379       .  S
O625        C642   1.280       .  A
O626       Zr631   2.424       .  S
O626        C641   1.288       .  A
O627       Zr630   2.425       .  S
O627        C640   1.291       .  A
O628       Zr634   2.419       .  S
O628        C637   1.287       .  A
O629       Zr634   2.379       .  S
O629        C638   1.281       .  A
Zr630       O636   2.334       .  S
Zr630       O648   2.333       .  S
Zr631       O635   2.337       .  S
Zr631       O646   2.371       .  S
Zr632       O636   2.335       .  S
Zr632       O646   2.342       .  S
Zr633       O635   2.325       .  S
Zr633       O648   2.370       .  S
Zr634       O635   2.369       .  S
Zr634       O636   2.320       .  S
Zr634       O648   2.339       .  S
Zr634       O646   2.334       .  S
C637       C1059   1.509       .  S
C638       C1019   1.456       .  S
C639       C1009   1.505       .  S
C640       C1049   1.463       .  S
C641       C1656   1.500       .  S
C642       C1716   1.475       .  S
C643       C1029   1.504       .  S
C644       C1636   1.474       .  S
H645        O646   0.965       .  S
H647        O648   0.965       .  S
C649        C650   1.417       .  A
C649        C654   1.397       .  A
C649        C956   1.507       .  S
C650        C651   1.433       .  A
C650        H655   1.077       .  S
C651        C652   1.430       .  A
C652        C653   1.417       .  A
C652        H656   1.079       .  S
C653        C654   1.396       .  A
C653        C966   1.501       .  S
C654        H657   1.085       .  S
C658        C659   1.401       .  A
C658        C663   1.412       .  A
C658        C949   1.490       .  S
C659        C660   1.395       .  A
C659        H664   1.078       .  S
C660        C661   1.386       .  A
C660        C939   1.461       .  S
C661        C662   1.390       .  A
C661        H665   1.085       .  S
C662        C663   1.401       .  A
C662        C926   1.466       .  S
C663        H666   1.084       .  S
O667       Zr703   2.517       .  S
O667        C678   1.307       .  A
O668       Zr702   2.429       .  S
O668        C679   1.290       .  A
O669       Zr675   2.465       .  S
O669        C680   1.295       .  A
O670       Zr675   2.504       .  S
O670        C681   1.304       .  A
O671       Zr705   2.442       .  S
O671        C681   1.293       .  A
O672       Zr704   2.387       .  S
O672        C680   1.279       .  A
O673       Zr675   2.434       .  S
O673        C679   1.293       .  A
O674       Zr675   2.427       .  S
O674        C678   1.290       .  A
Zr675       O676   2.336       .  S
Zr675       O677   2.347       .  S
Zr675       O685   2.339       .  S
Zr675       O683   2.362       .  S
O676       Zr702   2.362       .  S
O676       Zr705   2.352       .  S
O677       Zr703   2.336       .  S
O677       Zr704   2.360       .  S
C678       C1879   1.510       .  S
C679       C1416   1.470       .  S
C680       C1126   1.495       .  S
C681       C1439   1.512       .  S
H682        O683   0.965       .  S
O683       Zr702   2.354       .  S
O683       Zr704   2.333       .  S
H684        O685   0.966       .  S
O685       Zr703   2.330       .  S
O685       Zr705   2.331       .  S
O686       Zr702   2.507       .  S
O686        C709   1.305       .  A
O687       Zr703   2.471       .  S
O687        C710   1.298       .  A
O688       Zr704   2.500       .  S
O688        C711   1.304       .  A
O689       Zr705   2.431       .  S
O689        C712   1.290       .  A
O690       Zr705   2.509       .  S
O690        C713   1.304       .  A
O691       Zr704   2.466       .  S
O691        C714   1.297       .  A
O692       Zr706   2.497       .  S
O692        C715   1.302       .  A
O693       Zr706   2.413       .  S
O693        C716   1.287       .  A
O694       Zr704   2.422       .  S
O694        C715   1.288       .  A
O695       Zr705   2.442       .  S
O695        C716   1.293       .  A
O696       Zr702   2.438       .  S
O696        C711   1.292       .  A
O697       Zr703   2.395       .  S
O697        C714   1.284       .  A
O698       Zr703   2.410       .  S
O698        C713   1.282       .  A
O699       Zr702   2.439       .  S
O699        C712   1.294       .  A
O700       Zr706   2.410       .  S
O700        C709   1.284       .  A
O701       Zr706   2.372       .  S
O701        C710   1.280       .  A
Zr702       O708   2.330       .  S
Zr702       O720   2.325       .  S
Zr703       O707   2.341       .  S
Zr703       O718   2.370       .  S
Zr704       O708   2.326       .  S
Zr704       O718   2.338       .  S
Zr705       O707   2.329       .  S
Zr705       O720   2.374       .  S
Zr706       O707   2.363       .  S
Zr706       O708   2.311       .  S
Zr706       O720   2.343       .  S
Zr706       O718   2.320       .  S
C709        C906   1.511       .  S
C710        C946   1.472       .  S
C711       C1149   1.508       .  S
C712        C919   1.468       .  S
C713       C1829   1.530       .  S
C714       C1856   1.460       .  S
C715        C969   1.503       .  S
C716       C1809   1.454       .  S
H717        O718   0.965       .  S
H719        O720   0.965       .  S
C721        C722   1.432       .  A
C721        C726   1.399       .  A
C721       C1229   1.530       .  S
C722        C723   1.437       .  A
C722        H727   1.078       .  S
C723        C724   1.421       .  A
C724        C725   1.409       .  A
C724        H728   1.078       .  S
C725        C726   1.393       .  A
C725        C896   1.501       .  S
C726        H729   1.081       .  S
C730        C731   1.391       .  A
C730        C735   1.400       .  A
C730       C1239   1.468       .  S
C731        C732   1.394       .  A
C731        H736   1.084       .  S
C732        C733   1.399       .  A
C732        C929   1.466       .  S
C733        C734   1.407       .  A
C733        H737   1.083       .  S
C734        C735   1.406       .  A
C734        C886   1.497       .  S
C735        H738   1.080       .  S
C739        C740   1.419       .  A
C739        C744   1.396       .  A
C739        C876   1.508       .  S
C740        C741   1.432       .  A
C740        H745   1.077       .  S
C741        C742   1.430       .  A
C742        C743   1.418       .  A
C742        H746   1.077       .  S
C743        C744   1.395       .  A
C743        C909   1.508       .  S
C744        H747   1.085       .  S
C748        C749   1.393       .  A
C748        C753   1.393       .  A
C748        C916   1.468       .  S
C749        C750   1.397       .  A
C749        H754   1.082       .  S
C750        C751   1.409       .  A
C750       C1039   1.482       .  S
C751        C752   1.405       .  A
C751        H755   1.084       .  S
C752        C753   1.404       .  A
C752        C866   1.486       .  S
C753        H756   1.083       .  S
O757       Zr793   2.499       .  S
O757        C768   1.302       .  A
O758       Zr792   2.452       .  S
O758        C769   1.295       .  A
O759       Zr765   2.508       .  S
O759        C770   1.305       .  A
O760       Zr765   2.483       .  S
O760        C771   1.301       .  A
O761       Zr795   2.391       .  S
O761        C771   1.284       .  A
O762       Zr794   2.409       .  S
O762        C770   1.283       .  A
O763       Zr765   2.401       .  S
O763        C769   1.286       .  A
O764       Zr765   2.422       .  S
O764        C768   1.286       .  A
Zr765       O766   2.365       .  S
Zr765       O767   2.321       .  S
Zr765       O775   2.336       .  S
Zr765       O773   2.343       .  S
O766       Zr792   2.346       .  S
O766       Zr795   2.330       .  S
O767       Zr793   2.321       .  S
O767       Zr794   2.341       .  S
C768       C1889   1.524       .  S
C769       C1556   1.465       .  S
C770       C1579   1.522       .  S
C771        C979   1.471       .  S
H772        O773   0.965       .  S
O773       Zr792   2.358       .  S
O773       Zr794   2.339       .  S
H774        O775   0.964       .  S
O775       Zr793   2.338       .  S
O775       Zr795   2.378       .  S
O776       Zr792   2.509       .  S
O776        C799   1.305       .  A
O777       Zr793   2.446       .  S
O777        C800   1.288       .  A
O778       Zr794   2.488       .  S
O778        C801   1.302       .  A
O779       Zr795   2.527       .  S
O779        C802   1.309       .  A
O780       Zr795   2.441       .  S
O780        C803   1.293       .  A
O781       Zr794   2.474       .  S
O781        C804   1.298       .  A
O782       Zr796   2.414       .  S
O782        C805   1.287       .  A
O783       Zr796   2.468       .  S
O783        C806   1.297       .  A
O784       Zr794   2.445       .  S
O784        C805   1.295       .  A
O785       Zr795   2.429       .  S
O785        C806   1.289       .  A
O786       Zr792   2.370       .  S
O786        C801   1.277       .  A
O787       Zr793   2.461       .  S
O787        C804   1.297       .  A
O788       Zr793   2.425       .  S
O788        C803   1.292       .  A
O789       Zr792   2.398       .  S
O789        C802   1.283       .  A
O790       Zr796   2.426       .  S
O790        C799   1.289       .  A
O791       Zr796   2.412       .  S
O791        C800   1.276       .  A
Zr792       O798   2.333       .  S
Zr792       O810   2.329       .  S
Zr793       O797   2.365       .  S
Zr793       O808   2.351       .  S
Zr794       O798   2.349       .  S
Zr794       O808   2.328       .  S
Zr795       O797   2.341       .  S
Zr795       O810   2.321       .  S
Zr796       O797   2.316       .  S
Zr796       O798   2.351       .  S
Zr796       O810   2.330       .  S
Zr796       O808   2.362       .  S
C799        C879   1.504       .  S
C800        C889   1.498       .  S
C801        C869   1.478       .  S
C802        C999   1.497       .  S
C803       C1866   1.475       .  S
C804       C1649   1.512       .  S
C805       C1629   1.458       .  S
C806        C899   1.492       .  S
H807        O808   0.964       .  S
H809        O810   0.966       .  S
O811       Zr847   2.457       .  S
O811        C822   1.295       .  A
O812       Zr846   2.439       .  S
O812        C823   1.293       .  A
O813       Zr819   2.469       .  S
O813        C824   1.296       .  A
O814       Zr819   2.406       .  S
O814        C825   1.285       .  A
O815       Zr849   2.444       .  S
O815        C825   1.294       .  A
O816       Zr848   2.439       .  S
O816        C824   1.290       .  A
O817       Zr819   2.413       .  S
O817        C823   1.288       .  A
O818       Zr819   2.459       .  S
O818        C822   1.295       .  A
Zr819       O820   2.367       .  S
Zr819       O821   2.324       .  S
Zr819       O829   2.343       .  S
Zr819       O827   2.324       .  S
O820       Zr846   2.347       .  S
O820       Zr849   2.336       .  S
O821       Zr847   2.331       .  S
O821       Zr848   2.321       .  S
C822       C1689   1.499       .  S
C823       C1409   1.468       .  S
C824       C1429   1.513       .  S
C825       C1376   1.453       .  S
H826        O827   0.965       .  S
O827       Zr846   2.369       .  S
O827       Zr848   2.343       .  S
H828        O829   0.965       .  S
O829       Zr847   2.338       .  S
O829       Zr849   2.363       .  S
O830       Zr846   2.489       .  S
O830        C853   1.300       .  A
O831       Zr847   2.441       .  S
O831        C854   1.292       .  A
O832       Zr848   2.424       .  S
O832        C855   1.289       .  A
O833       Zr849   2.473       .  S
O833        C856   1.298       .  A
O834       Zr849   2.427       .  S
O834        C857   1.290       .  A
O835       Zr848   2.494       .  S
O835        C858   1.302       .  A
O836       Zr850   2.423       .  S
O836        C859   1.288       .  A
O837       Zr850   2.476       .  S
O837        C860   1.299       .  A
O838       Zr848   2.412       .  S
O838        C859   1.288       .  A
O839       Zr849   2.452       .  S
O839        C860   1.294       .  A
O840       Zr846   2.434       .  S
O840        C855   1.293       .  A
O841       Zr847   2.429       .  S
O841        C858   1.290       .  A
O842       Zr847   2.403       .  S
O842        C857   1.287       .  A
O843       Zr846   2.471       .  S
O843        C856   1.298       .  A
O844       Zr850   2.423       .  S
O844        C853   1.287       .  A
O845       Zr850   2.401       .  S
O845        C854   1.285       .  A
Zr846       O852   2.330       .  S
Zr846       O864   2.325       .  S
Zr847       O851   2.355       .  S
Zr847       O862   2.336       .  S
Zr848       O852   2.362       .  S
Zr848       O862   2.334       .  S
Zr849       O851   2.349       .  S
Zr849       O864   2.334       .  S
Zr850       O851   2.329       .  S
Zr850       O852   2.336       .  S
Zr850       O864   2.322       .  S
Zr850       O862   2.363       .  S
C853       C1306   1.514       .  S
C854        C936   1.460       .  S
C855       C1289   1.472       .  S
C856       C1399   1.504       .  S
C857       C1666   1.457       .  S
C858       C1609   1.509       .  S
C859       C1589   1.450       .  S
C860        C959   1.506       .  S
H861        O862   0.965       .  S
H863        O864   0.965       .  S
C865        C866   1.416       .  A
C865        C870   1.409       .  A
C865       Br872   1.929       .  S
C866        C867   1.412       .  A
C867        C868   1.393       .  A
C867       Br874   1.931       .  S
C868        C869   1.414       .  A
C868       Br873   1.935       .  S
C869        C870   1.409       .  A
C870       Br871   1.925       .  S
C875        C876   1.417       .  A
C875        C880   1.415       .  A
C875       Br882   1.934       .  S
C876        C877   1.414       .  A
C877        C878   1.418       .  A
C877       Br884   1.930       .  S
C878        C879   1.420       .  A
C878       Br883   1.932       .  S
C879        C880   1.413       .  A
C880       Br881   1.926       .  S
C885        C886   1.419       .  A
C885        C890   1.400       .  A
C885       Br892   1.937       .  S
C886        C887   1.416       .  A
C887        C888   1.409       .  A
C887       Br894   1.935       .  S
C888        C889   1.421       .  A
C888       Br893   1.938       .  S
C889        C890   1.425       .  A
C890       Br891   1.950       .  S
C895        C896   1.418       .  A
C895        C900   1.413       .  A
C895       Br902   1.932       .  S
C896        C897   1.416       .  A
C897        C898   1.410       .  A
C897       Br904   1.935       .  S
C898        C899   1.413       .  A
C898       Br903   1.926       .  S
C899        C900   1.412       .  A
C900       Br901   1.931       .  S
C905        C906   1.427       .  A
C905        C910   1.415       .  A
C905       Br912   1.935       .  S
C906        C907   1.416       .  A
C907        C908   1.418       .  A
C907       Br914   1.931       .  S
C908        C909   1.419       .  A
C908       Br913   1.933       .  S
C909        C910   1.411       .  A
C910       Br911   1.935       .  S
C915        C916   1.417       .  A
C915        C920   1.399       .  A
C915       Br922   1.932       .  S
C916        C917   1.401       .  A
C917        C918   1.403       .  A
C917       Br924   1.927       .  S
C918        C919   1.406       .  A
C918       Br923   1.912       .  S
C919        C920   1.399       .  A
C920       Br921   1.922       .  S
C925        C926   1.407       .  A
C925        C930   1.403   1_554  A
C925       Br932   1.930       .  S
C926        C927   1.411       .  A
C927        C928   1.394   1_554  A
C927       Br934   1.932       .  S
C928        C929   1.408       .  A
C928       Br933   1.929       .  S
C929        C930   1.409       .  A
C930       Br931   1.929       .  S
C935        C936   1.404       .  A
C935        C940   1.395       .  A
C935       Br942   1.934       .  S
C936        C937   1.410       .  A
C937        C938   1.399       .  A
C937       Br944   1.906       .  S
C938        C939   1.399       .  A
C938       Br943   1.932       .  S
C939        C940   1.415       .  A
C940       Br941   1.931       .  S
C945        C946   1.409       .  A
C945        C950   1.405       .  A
C945       Br952   1.919       .  S
C946        C947   1.413       .  A
C947        C948   1.398       .  A
C947       Br954   1.947       .  S
C948        C949   1.421       .  A
C948       Br953   1.936       .  S
C949        C950   1.412       .  A
C950       Br951   1.934       .  S
C955        C956   1.414       .  A
C955        C960   1.414       .  A
C955       Br962   1.929       .  S
C956        C957   1.414       .  A
C957        C958   1.420       .  A
C957       Br964   1.930       .  S
C958        C959   1.419       .  A
C958       Br963   1.931       .  S
C959        C960   1.417       .  A
C960       Br961   1.930       .  S
C965        C966   1.414       .  A
C965        C970   1.416       .  A
C965       Br972   1.927       .  S
C966        C967   1.409       .  A
C967        C968   1.416       .  A
C967       Br974   1.931       .  S
C968        C969   1.419       .  A
C968       Br973   1.925       .  S
C969        C970   1.414       .  A
C970       Br971   1.929       .  S
C975        C976   1.411       .  A
C975        C980   1.405       .  A
C975       Br982   1.935       .  S
C976        C977   1.415       .  A
C977        C978   1.400       .  A
C977       Br984   1.936       .  S
C978        C979   1.407       .  A
C978       Br983   1.925       .  S
C979        C980   1.409       .  A
C980       Br981   1.922       .  S
C985        C986   1.406       .  A
C985        C990   1.398       .  A
C985       Br992   1.939       .  S
C986        C987   1.421       .  A
C987        C988   1.412       .  A
C987       Br994   1.936       .  S
C988        C989   1.425       .  A
C988       Br993   1.939       .  S
C989        C990   1.427       .  A
C990       Br991   1.942       .  S
C995        C996   1.409       .  A
C995       C1000   1.413       .  A
C995      Br1002   1.929       .  S
C996        C997   1.412       .  A
C997        C998   1.414       .  A
C997      Br1004   1.929       .  S
C998        C999   1.411       .  A
C998      Br1003   1.921       .  S
C999       C1000   1.415       .  A
C1000     Br1001   1.921       .  S
C1005      C1006   1.413       .  A
C1005      C1010   1.420       .  A
C1005     Br1012   1.927       .  S
C1006      C1007   1.411       .  A
C1007      C1008   1.415       .  A
C1007     Br1014   1.931       .  S
C1008      C1009   1.413       .  A
C1008     Br1013   1.916       .  S
C1009      C1010   1.413       .  A
C1010     Br1011   1.919       .  S
C1015      C1016   1.401       .  A
C1015      C1020   1.402       .  A
C1015     Br1022   1.929       .  S
C1016      C1017   1.417       .  A
C1017      C1018   1.395       .  A
C1017     Br1024   1.933       .  S
C1018      C1019   1.401       .  A
C1018     Br1023   1.933       .  S
C1019      C1020   1.406       .  A
C1020     Br1021   1.907       .  S
C1025      C1026   1.414       .  A
C1025      C1030   1.416       .  A
C1025     Br1032   1.926       .  S
C1026      C1027   1.411       .  A
C1027      C1028   1.419       .  A
C1027     Br1034   1.928       .  S
C1028      C1029   1.419       .  A
C1028     Br1033   1.930       .  S
C1029      C1030   1.413       .  A
C1030     Br1031   1.929       .  S
C1035      C1036   1.409       .  A
C1035      C1040   1.404   1_565  A
C1035     Br1042   1.926       .  S
C1036      C1037   1.422       .  A
C1037      C1038   1.399   1_565  A
C1037     Br1044   1.938       .  S
C1038      C1039   1.415       .  A
C1038     Br1043   1.940       .  S
C1039      C1040   1.409       .  A
C1040     Br1041   1.926       .  S
C1045      C1046   1.409       .  A
C1045      C1050   1.400       .  A
C1045     Br1052   1.930       .  S
C1046      C1047   1.418       .  A
C1047      C1048   1.401       .  A
C1047     Br1054   1.925       .  S
C1048      C1049   1.404       .  A
C1048     Br1053   1.938       .  S
C1049      C1050   1.406       .  A
C1050     Br1051   1.917       .  S
C1055      C1056   1.417       .  A
C1055      C1060   1.417       .  A
C1055     Br1062   1.932       .  S
C1056      C1057   1.411       .  A
C1057      C1058   1.417       .  A
C1057     Br1064   1.932       .  S
C1058      C1059   1.422       .  A
C1058     Br1063   1.932       .  S
C1059      C1060   1.415       .  A
C1060     Br1061   1.927       .  S
C1065      C1066   1.410       .  A
C1065      C1070   1.418       .  A
C1065     Br1072   1.932       .  S
C1066      C1067   1.414       .  A
C1067      C1068   1.415       .  A
C1067     Br1074   1.915       .  S
C1068      C1069   1.413       .  A
C1068     Br1073   1.933       .  S
C1069      C1070   1.425       .  A
C1070     Br1071   1.933       .  S
C1075      C1076   1.415       .  A
C1075      C1080   1.397       .  A
C1075     Br1082   1.930       .  S
C1076      C1077   1.392       .  A
C1077      C1078   1.393       .  A
C1077     Br1084   1.935       .  S
C1078      C1079   1.415       .  A
C1078     Br1083   1.909       .  S
C1079      C1080   1.400       .  A
C1080     Br1081   1.930       .  S
C1085      C1086   1.411       .  A
C1085      C1090   1.406   1_554  A
C1085     Br1092   1.928       .  S
C1086      C1087   1.416       .  A
C1087      C1088   1.397   1_554  A
C1087     Br1094   1.934       .  S
C1088      C1089   1.415       .  A
C1088     Br1093   1.936       .  S
C1089      C1090   1.409       .  A
C1090     Br1091   1.926       .  S
C1095      C1096   1.399       .  A
C1095      C1100   1.402       .  A
C1095     Br1102   1.933       .  S
C1096      C1097   1.412       .  A
C1097      C1098   1.401       .  A
C1097     Br1104   1.932       .  S
C1098      C1099   1.408       .  A
C1098     Br1103   1.932       .  S
C1099      C1100   1.424       .  A
C1100     Br1101   1.931       .  S
C1105      C1106   1.412       .  A
C1105      C1110   1.422       .  A
C1105     Br1112   1.936       .  S
C1106      C1107   1.420       .  A
C1107      C1108   1.411       .  A
C1107     Br1114   1.935       .  S
C1108      C1109   1.418       .  A
C1108     Br1113   1.937       .  S
C1109      C1110   1.438       .  A
C1110     Br1111   1.941       .  S
C1115      C1116   1.414       .  A
C1115      C1120   1.398       .  A
C1115     Br1122   1.937       .  S
C1116      C1117   1.411       .  A
C1117      C1118   1.400       .  A
C1117     Br1124   1.934       .  S
C1118      C1119   1.405       .  A
C1118     Br1123   1.919       .  S
C1119      C1120   1.403       .  A
C1120     Br1121   1.918       .  S
C1125      C1126   1.421       .  A
C1125      C1130   1.407       .  A
C1125     Br1132   1.938       .  S
C1126      C1127   1.431       .  A
C1127      C1128   1.398       .  A
C1127     Br1134   1.946       .  S
C1128      C1129   1.403       .  A
C1128     Br1133   1.941       .  S
C1129      C1130   1.419       .  A
C1130     Br1131   1.937       .  S
C1135      C1136   1.414       .  A
C1135      C1140   1.417       .  A
C1135     Br1142   1.928       .  S
C1136      C1137   1.409       .  A
C1137      C1138   1.414       .  A
C1137     Br1144   1.930       .  S
C1138      C1139   1.411       .  A
C1138     Br1143   1.909       .  S
C1139      C1140   1.412       .  A
C1140     Br1141   1.921       .  S
C1145      C1146   1.416       .  A
C1145      C1150   1.418       .  A
C1145     Br1152   1.929       .  S
C1146      C1147   1.410       .  A
C1147      C1148   1.416       .  A
C1147     Br1154   1.932       .  S
C1148      C1149   1.418       .  A
C1148     Br1153   1.920       .  S
C1149      C1150   1.414       .  A
C1150     Br1151   1.925       .  S
C1155      C1156   1.434       .  A
C1155      C1160   1.417       .  A
C1155     Br1162   1.941       .  S
C1156      C1157   1.418       .  A
C1157      C1158   1.411       .  A
C1157     Br1164   1.935       .  S
C1158      C1159   1.417       .  A
C1158     Br1163   1.929       .  S
C1159      C1160   1.411       .  A
C1160     Br1161   1.935       .  S
C1165      C1166   1.409       .  A
C1165      C1170   1.403       .  A
C1165     Br1172   1.943       .  S
C1166      C1167   1.410       .  A
C1167      C1168   1.405       .  A
C1167     Br1174   1.931       .  S
C1168      C1169   1.416       .  A
C1168     Br1173   1.932       .  S
C1169      C1170   1.428       .  A
C1170     Br1171   1.934       .  S
C1175      C1176   1.408       .  A
C1175      C1180   1.387       .  A
C1175     Br1182   1.933       .  S
C1176      C1177   1.407       .  A
C1177      C1178   1.409       .  A
C1177     Br1184   1.925       .  S
C1178      C1179   1.407       .  A
C1178     Br1183   1.921       .  S
C1179      C1180   1.409       .  A
C1180     Br1181   1.935       .  S
C1185      C1186   1.404       .  A
C1185      C1190   1.401       .  A
C1185     Br1192   1.921       .  S
C1186      C1187   1.409       .  A
C1187      C1188   1.398       .  A
C1187     Br1194   1.922       .  S
C1188      C1189   1.403       .  A
C1188     Br1193   1.933       .  S
C1189      C1190   1.408       .  A
C1190     Br1191   1.922       .  S
C1195      C1196   1.411       .  A
C1195      C1200   1.420       .  A
C1195     Br1202   1.936       .  S
C1196      C1197   1.421       .  A
C1197      C1198   1.422       .  A
C1197     Br1204   1.936       .  S
C1198      C1199   1.421       .  A
C1198     Br1203   1.932       .  S
C1199      C1200   1.436       .  A
C1200     Br1201   1.942       .  S
C1205      C1206   1.403       .  A
C1205      C1210   1.400       .  A
C1205     Br1212   1.940       .  S
C1206      C1207   1.421       .  A
C1207      C1208   1.408       .  A
C1207     Br1214   1.932       .  S
C1208      C1209   1.418       .  A
C1208     Br1213   1.942       .  S
C1209      C1210   1.425       .  A
C1210     Br1211   1.934       .  S
C1215      C1216   1.416       .  A
C1215      C1220   1.420       .  A
C1215     Br1222   1.927       .  S
C1216      C1217   1.413       .  A
C1217      C1218   1.414       .  A
C1217     Br1224   1.932       .  S
C1218      C1219   1.409       .  A
C1218     Br1223   1.911       .  S
C1219      C1220   1.413       .  A
C1220     Br1221   1.929       .  S
C1225      C1226   1.421       .  A
C1225      C1230   1.418       .  A
C1225     Br1232   1.934       .  S
C1226      C1227   1.442       .  A
C1227      C1228   1.422       .  A
C1227     Br1234   1.943       .  S
C1228      C1229   1.414       .  A
C1228     Br1233   1.936       .  S
C1229      C1230   1.425       .  A
C1230     Br1231   1.937       .  S
C1235      C1236   1.402       .  A
C1235      C1240   1.398       .  A
C1235     Br1242   1.934       .  S
C1236      C1237   1.409       .  A
C1237      C1238   1.404       .  A
C1237     Br1244   1.916       .  S
C1238      C1239   1.402       .  A
C1238     Br1243   1.929       .  S
C1239      C1240   1.416       .  A
C1240     Br1241   1.930       .  S
C1245      C1246   1.412       .  A
C1245      C1250   1.415       .  A
C1245     Br1252   1.931       .  S
C1246      C1247   1.417       .  A
C1247      C1248   1.419       .  A
C1247     Br1254   1.927       .  S
C1248      C1249   1.411       .  A
C1248     Br1253   1.929       .  S
C1249      C1250   1.410       .  A
C1250     Br1251   1.915       .  S
C1255      C1256   1.415       .  A
C1255      C1260   1.392       .  A
C1255     Br1262   1.938       .  S
C1256      C1257   1.418       .  A
C1257      C1258   1.411       .  A
C1257     Br1264   1.935       .  S
C1258      C1259   1.421       .  A
C1258     Br1263   1.933       .  S
C1259      C1260   1.408       .  A
C1260     Br1261   1.937       .  S
C1265      C1266   1.406       .  A
C1265      C1270   1.408       .  A
C1265     Br1272   1.924       .  S
C1266      C1267   1.408       .  A
C1267      C1268   1.384       .  A
C1267     Br1274   1.933       .  S
C1268      C1269   1.405   1_565  A
C1268     Br1273   1.927   1_565  S
C1269      C1270   1.409   1_545  A
C1270     Br1271   1.925   1_565  S
C1275      C1276   1.412       .  A
C1275      C1280   1.396       .  A
C1275     Br1282   1.922       .  S
C1276      C1277   1.402       .  A
C1277      C1278   1.398       .  A
C1277     Br1284   1.931       .  S
C1278      C1279   1.410       .  A
C1278     Br1283   1.923       .  S
C1279      C1280   1.400       .  A
C1280     Br1281   1.933       .  S
C1285      C1286   1.399       .  A
C1285      C1290   1.395       .  A
C1285     Br1292   1.938       .  S
C1286      C1287   1.408       .  A
C1287      C1288   1.403       .  A
C1287     Br1294   1.932       .  S
C1288      C1289   1.416       .  A
C1288     Br1293   1.933       .  S
C1289      C1290   1.417       .  A
C1290     Br1291   1.924       .  S
C1295      C1296   1.416       .  A
C1295      C1300   1.412       .  A
C1295     Br1302   1.916       .  S
C1296      C1297   1.409       .  A
C1297      C1298   1.416       .  A
C1297     Br1304   1.930       .  S
C1298      C1299   1.423       .  A
C1298     Br1303   1.933       .  S
C1299      C1300   1.412       .  A
C1300     Br1301   1.935       .  S
C1305      C1306   1.418       .  A
C1305      C1310   1.413       .  A
C1305     Br1312   1.934       .  S
C1306      C1307   1.429       .  A
C1307      C1308   1.417       .  A
C1307     Br1314   1.934       .  S
C1308      C1309   1.411       .  A
C1308     Br1313   1.935       .  S
C1309      C1310   1.417       .  A
C1310     Br1311   1.935       .  S
C1315      C1316   1.410       .  A
C1315      C1320   1.410       .  A
C1315     Br1322   1.910       .  S
C1316      C1317   1.410       .  A
C1317      C1318   1.414       .  A
C1317     Br1324   1.925       .  S
C1318      C1319   1.413       .  A
C1318     Br1323   1.928       .  S
C1319      C1320   1.406       .  A
C1320     Br1321   1.929       .  S
C1325      C1326   1.409       .  A
C1325      C1330   1.407       .  A
C1325     Br1332   1.921       .  S
C1326      C1327   1.406       .  A
C1327      C1328   1.398       .  A
C1327     Br1334   1.918       .  S
C1328      C1329   1.410       .  A
C1328     Br1333   1.933       .  S
C1329      C1330   1.411       .  A
C1330     Br1331   1.929       .  S
C1335      C1336   1.420       .  A
C1335      C1340   1.421       .  A
C1335     Br1342   1.935       .  S
C1336      C1337   1.413       .  A
C1337      C1338   1.421       .  A
C1337     Br1344   1.934       .  S
C1338      C1339   1.433       .  A
C1338     Br1343   1.938       .  S
C1339      C1340   1.422       .  A
C1340     Br1341   1.933       .  S
C1345      C1346   1.406       .  A
C1345      C1350   1.401       .  A
C1345     Br1352   1.931       .  S
C1346      C1347   1.411       .  A
C1347      C1348   1.401       .  A
C1347     Br1354   1.919       .  S
C1348      C1349   1.399       .  A
C1348     Br1353   1.918       .  S
C1349      C1350   1.404       .  A
C1350     Br1351   1.917       .  S
C1355      C1356   1.413       .  A
C1355      C1360   1.390       .  A
C1355     Br1362   1.935       .  S
C1356      C1357   1.403       .  A
C1357      C1358   1.402       .  A
C1357     Br1364   1.925       .  S
C1358      C1359   1.407       .  A
C1358     Br1363   1.928       .  S
C1359      C1360   1.405       .  A
C1360     Br1361   1.937       .  S
C1365      C1366   1.423       .  A
C1365      C1370   1.403       .  A
C1365     Br1372   1.932       .  S
C1366      C1367   1.415       .  A
C1367      C1368   1.396       .  A
C1367     Br1374   1.936       .  S
C1368      C1369   1.402       .  A
C1368     Br1373   1.922       .  S
C1369      C1370   1.408       .  A
C1370     Br1371   1.940       .  S
C1375      C1376   1.397       .  A
C1375      C1380   1.400       .  A
C1375     Br1382   1.925       .  S
C1376      C1377   1.402       .  A
C1377      C1378   1.396       .  A
C1377     Br1384   1.908       .  S
C1378      C1379   1.399       .  A
C1378     Br1383   1.929       .  S
C1379      C1380   1.414       .  A
C1380     Br1381   1.925       .  S
C1385      C1386   1.410       .  A
C1385      C1390   1.417       .  A
C1385     Br1392   1.932       .  S
C1386      C1387   1.418       .  A
C1387      C1388   1.418       .  A
C1387     Br1394   1.931       .  S
C1388      C1389   1.413       .  A
C1388     Br1393   1.922       .  S
C1389      C1390   1.418       .  A
C1390     Br1391   1.919       .  S
C1395      C1396   1.413       .  A
C1395      C1400   1.418       .  A
C1395     Br1402   1.928       .  S
C1396      C1397   1.420       .  A
C1397      C1398   1.414       .  A
C1397     Br1404   1.933       .  S
C1398      C1399   1.409       .  A
C1398     Br1403   1.926       .  S
C1399      C1400   1.412       .  A
C1400     Br1401   1.920       .  S
C1405      C1406   1.410       .  A
C1405      C1410   1.398       .  A
C1405     Br1412   1.937       .  S
C1406      C1407   1.419       .  A
C1407      C1408   1.405       .  A
C1407     Br1414   1.935       .  S
C1408      C1409   1.408       .  A
C1408     Br1413   1.935       .  S
C1409      C1410   1.405       .  A
C1410     Br1411   1.917       .  S
C1415      C1416   1.411       .  A
C1415      C1420   1.398       .  A
C1415     Br1422   1.923       .  S
C1416      C1417   1.407       .  A
C1417      C1418   1.401       .  A
C1417     Br1424   1.932       .  S
C1418      C1419   1.416       .  A
C1418     Br1423   1.931       .  S
C1419      C1420   1.402       .  A
C1420     Br1421   1.932       .  S
C1425      C1426   1.414       .  A
C1425      C1430   1.419       .  A
C1425     Br1432   1.934       .  S
C1426      C1427   1.417       .  A
C1427      C1428   1.408       .  A
C1427     Br1434   1.936       .  S
C1428      C1429   1.417       .  A
C1428     Br1433   1.936       .  S
C1429      C1430   1.426       .  A
C1430     Br1431   1.932       .  S
C1435      C1436   1.423       .  A
C1435      C1440   1.416       .  A
C1435     Br1442   1.933   1_655  S
C1436      C1437   1.417       .  A
C1437      C1438   1.420       .  A
C1437     Br1444   1.932       .  S
C1438      C1439   1.417       .  A
C1438     Br1443   1.922       .  S
C1439      C1440   1.409       .  A
C1440     Br1441   1.925       .  S
C1445      C1446   1.417       .  A
C1445      C1450   1.395       .  A
C1445     Br1452   1.937       .  S
C1446      C1447   1.416       .  A
C1447      C1448   1.404       .  A
C1447     Br1454   1.940   1_655  S
C1448      C1449   1.424       .  A
C1448     Br1453   1.939       .  S
C1449      C1450   1.410       .  A
C1450     Br1451   1.936       .  S
C1455      C1456   1.399       .  A
C1455      C1460   1.400       .  A
C1455     Br1462   1.937       .  S
C1456      C1457   1.420       .  A
C1457      C1458   1.401       .  A
C1457     Br1464   1.929       .  S
C1458      C1459   1.408       .  A
C1458     Br1463   1.937       .  S
C1459      C1460   1.420       .  A
C1460     Br1461   1.918       .  S
C1465      C1466   1.409       .  A
C1465      C1470   1.417       .  A
C1465     Br1472   1.928       .  S
C1466      C1467   1.409       .  A
C1467      C1468   1.409       .  A
C1467     Br1474   1.927   1_655  S
C1468      C1469   1.407       .  A
C1468     Br1473   1.910       .  S
C1469      C1470   1.415       .  A
C1470     Br1471   1.914       .  S
C1475      C1476   1.416       .  A
C1475      C1480   1.423       .  A
C1475     Br1482   1.931       .  S
C1476      C1477   1.424       .  A
C1477      C1478   1.416       .  A
C1477     Br1484   1.923       .  S
C1478      C1479   1.408       .  A
C1478     Br1483   1.927       .  S
C1479      C1480   1.420       .  A
C1480     Br1481   1.918       .  S
C1485      C1486   1.407       .  A
C1485      C1490   1.387       .  A
C1485     Br1492   1.938       .  S
C1486      C1487   1.406       .  A
C1487      C1488   1.398       .  A
C1487     Br1494   1.929       .  S
C1488      C1489   1.402       .  A
C1488     Br1493   1.927       .  S
C1489      C1490   1.409       .  A
C1490     Br1491   1.936       .  S
C1495      C1496   1.411       .  A
C1495      C1500   1.402       .  A
C1495     Br1502   1.934       .  S
C1496      C1497   1.412       .  A
C1497      C1498   1.396       .  A
C1497     Br1504   1.940       .  S
C1498      C1499   1.409       .  A
C1498     Br1503   1.925       .  S
C1499      C1500   1.408       .  A
C1500     Br1501   1.928       .  S
C1505      C1506   1.419       .  A
C1505      C1510   1.402       .  A
C1505     Br1512   1.927       .  S
C1506      C1507   1.403       .  A
C1507      C1508   1.398       .  A
C1507     Br1514   1.934       .  S
C1508      C1509   1.414       .  A
C1508     Br1513   1.929       .  S
C1509      C1510   1.403       .  A
C1510     Br1511   1.937       .  S
C1515      C1516   1.410       .  A
C1515      C1520   1.411       .  A
C1515     Br1522   1.928       .  S
C1516      C1517   1.404       .  A
C1517      C1518   1.409       .  A
C1517     Br1524   1.930       .  S
C1518      C1519   1.411       .  A
C1518     Br1523   1.903       .  S
C1519      C1520   1.411       .  A
C1520     Br1521   1.917       .  S
C1525      C1526   1.426       .  A
C1525      C1530   1.417       .  A
C1525     Br1532   1.928   1_655  S
C1526      C1527   1.415       .  A
C1527      C1528   1.421       .  A
C1527     Br1534   1.931       .  S
C1528      C1529   1.421       .  A
C1528     Br1533   1.925       .  S
C1529      C1530   1.409       .  A
C1530     Br1531   1.935       .  S
C1535      C1536   1.409       .  A
C1535      C1540   1.404       .  A
C1535     Br1542   1.927       .  S
C1536      C1537   1.410       .  A
C1537      C1538   1.390       .  A
C1537     Br1544   1.942       .  S
C1538      C1539   1.412       .  A
C1538     Br1543   1.939       .  S
C1539      C1540   1.403       .  A
C1540     Br1541   1.926       .  S
C1545      C1546   1.422       .  A
C1545      C1550   1.412       .  A
C1545     Br1552   1.942       .  S
C1546      C1547   1.420       .  A
C1547      C1548   1.389       .  A
C1547     Br1554   1.941       .  S
C1548      C1549   1.404       .  A
C1548     Br1553   1.935       .  S
C1549      C1550   1.425       .  A
C1550     Br1551   1.936       .  S
C1555      C1556   1.409       .  A
C1555      C1560   1.406       .  A
C1555     Br1562   1.930       .  S
C1556      C1557   1.412       .  A
C1557      C1558   1.395       .  A
C1557     Br1564   1.926       .  S
C1558      C1559   1.403       .  A
C1558     Br1563   1.936   1_655  S
C1559      C1560   1.409       .  A
C1560     Br1561   1.924       .  S
C1565      C1566   1.414       .  A
C1565      C1570   1.417       .  A
C1565     Br1572   1.931       .  S
C1566      C1567   1.415       .  A
C1567      C1568   1.420       .  A
C1567     Br1574   1.928       .  S
C1568      C1569   1.412       .  A
C1568     Br1573   1.922       .  S
C1569      C1570   1.410       .  A
C1570     Br1571   1.912       .  S
C1575      C1576   1.410       .  A
C1575      C1580   1.414       .  A
C1575     Br1582   1.936       .  S
C1576      C1577   1.420       .  A
C1577      C1578   1.418       .  A
C1577     Br1584   1.937   1_655  S
C1578      C1579   1.420       .  A
C1578     Br1583   1.932       .  S
C1579      C1580   1.434       .  A
C1580     Br1581   1.942       .  S
C1585      C1586   1.413       .  A
C1585      C1590   1.398       .  A
C1585     Br1592   1.927       .  S
C1586      C1587   1.404       .  A
C1587      C1588   1.401       .  A
C1587     Br1594   1.928       .  S
C1588      C1589   1.407       .  A
C1588     Br1593   1.931       .  S
C1589      C1590   1.399       .  A
C1590     Br1591   1.930       .  S
C1595      C1596   1.407       .  A
C1595      C1600   1.403       .  A
C1595     Br1602   1.929       .  S
C1596      C1597   1.403       .  A
C1597      C1598   1.401       .  A
C1597     Br1604   1.931       .  S
C1598      C1599   1.417       .  A
C1598     Br1603   1.929       .  S
C1599      C1600   1.413       .  A
C1600     Br1601   1.933       .  S
C1605      C1606   1.414       .  A
C1605      C1610   1.416       .  A
C1605     Br1612   1.935       .  S
C1606      C1607   1.423       .  A
C1607      C1608   1.416       .  A
C1607     Br1614   1.935       .  S
C1608      C1609   1.414       .  A
C1608     Br1613   1.934       .  S
C1609      C1610   1.422       .  A
C1610     Br1611   1.924       .  S
C1615      C1616   1.413       .  A
C1615      C1620   1.417       .  A
C1615     Br1622   1.937       .  S
C1616      C1617   1.419       .  A
C1617      C1618   1.410       .  A
C1617     Br1624   1.936       .  S
C1618      C1619   1.419       .  A
C1618     Br1623   1.936       .  S
C1619      C1620   1.440       .  A
C1620     Br1621   1.945       .  S
C1625      C1626   1.422       .  A
C1625      C1630   1.405       .  A
C1625     Br1632   1.932       .  S
C1626      C1627   1.414       .  A
C1627      C1628   1.393       .  A
C1627     Br1634   1.933       .  S
C1628      C1629   1.393       .  A
C1628     Br1633   1.916       .  S
C1629      C1630   1.397       .  A
C1630     Br1631   1.925       .  S
C1635      C1636   1.419       .  A
C1635      C1640   1.397       .  A
C1635     Br1642   1.919       .  S
C1636      C1637   1.410       .  A
C1637      C1638   1.404       .  A
C1637     Br1644   1.932       .  S
C1638      C1639   1.414       .  A
C1638     Br1643   1.932       .  S
C1639      C1640   1.398       .  A
C1640     Br1641   1.938       .  S
C1645      C1646   1.427       .  A
C1645      C1650   1.410       .  A
C1645     Br1652   1.915       .  S
C1646      C1647   1.420       .  A
C1647      C1648   1.424       .  A
C1647     Br1654   1.929       .  S
C1648      C1649   1.413       .  A
C1648     Br1653   1.917       .  S
C1649      C1650   1.403       .  A
C1650     Br1651   1.931       .  S
C1655      C1656   1.403       .  A
C1655      C1660   1.399       .  A
C1655     Br1662   1.923       .  S
C1656      C1657   1.424       .  A
C1657      C1658   1.423       .  A
C1657     Br1664   1.923       .  S
C1658      C1659   1.413       .  A
C1658     Br1663   1.926       .  S
C1659      C1660   1.407       .  A
C1660     Br1661   1.917       .  S
C1665      C1666   1.410       .  A
C1665      C1670   1.394       .  A
C1665     Br1672   1.922       .  S
C1666      C1667   1.404       .  A
C1667      C1668   1.398       .  A
C1667     Br1674   1.928       .  S
C1668      C1669   1.409       .  A
C1668     Br1673   1.921       .  S
C1669      C1670   1.402       .  A
C1670     Br1671   1.933       .  S
C1675      C1676   1.405       .  A
C1675      C1680   1.400       .  A
C1675     Br1682   1.935       .  S
C1676      C1677   1.411       .  A
C1677      C1678   1.398       .  A
C1677     Br1684   1.933       .  S
C1678      C1679   1.412       .  A
C1678     Br1683   1.927       .  S
C1679      C1680   1.420       .  A
C1680     Br1681   1.935       .  S
C1685      C1686   1.421       .  A
C1685      C1690   1.411       .  A
C1685     Br1692   1.934       .  S
C1686      C1687   1.414       .  A
C1687      C1688   1.416       .  A
C1687     Br1694   1.930       .  S
C1688      C1689   1.414       .  A
C1688     Br1693   1.924       .  S
C1689      C1690   1.410       .  A
C1690     Br1691   1.934       .  S
C1695      C1696   1.414       .  A
C1695      C1700   1.416       .  A
C1695     Br1702   1.929       .  S
C1696      C1697   1.416       .  A
C1697      C1698   1.416       .  A
C1697     Br1704   1.927       .  S
C1698      C1699   1.412       .  A
C1698     Br1703   1.931       .  S
C1699      C1700   1.418       .  A
C1700     Br1701   1.932       .  S
C1705      C1706   1.407       .  A
C1705      C1710   1.402       .  A
C1705     Br1712   1.928       .  S
C1706      C1707   1.402       .  A
C1707      C1708   1.398       .  A
C1707     Br1714   1.928       .  S
C1708      C1709   1.418       .  A
C1708     Br1713   1.937       .  S
C1709      C1710   1.409       .  A
C1710     Br1711   1.931       .  S
C1715      C1716   1.401       .  A
C1715      C1720   1.404       .  A
C1715     Br1722   1.921       .  S
C1716      C1717   1.418       .  A
C1717      C1718   1.397       .  A
C1717     Br1724   1.924       .  S
C1718      C1719   1.401       .  A
C1718     Br1723   1.936       .  S
C1719      C1720   1.418       .  A
C1720     Br1721   1.930       .  S
C1725      C1726   1.412       .  A
C1725      C1730   1.421       .  A
C1725     Br1732   1.938   1_655  S
C1726      C1727   1.424       .  A
C1727      C1728   1.416       .  A
C1727     Br1734   1.936       .  S
C1728      C1729   1.418       .  A
C1728     Br1733   1.933       .  S
C1729      C1730   1.445       .  A
C1730     Br1731   1.946       .  S
C1735      C1736   1.408       .  A
C1735      C1740   1.414       .  A
C1735     Br1742   1.930       .  S
C1736      C1737   1.416       .  A
C1737      C1738   1.412       .  A
C1737     Br1744   1.931       .  S
C1738      C1739   1.414       .  A
C1738     Br1743   1.933       .  S
C1739      C1740   1.420       .  A
C1740     Br1741   1.932       .  S
C1745      C1746   1.405       .  A
C1745      C1750   1.401       .  A
C1745     Br1752   1.928       .  S
C1746      C1747   1.410       .  A
C1747      C1748   1.389       .  A
C1747     Br1754   1.940   1_565  S
C1748      C1749   1.410       .  A
C1748     Br1753   1.941   1_565  S
C1749      C1750   1.406       .  A
C1750     Br1751   1.928       .  S
C1755      C1756   1.417       .  A
C1755      C1760   1.400       .  A
C1755     Br1762   1.939   1_545  S
C1756      C1757   1.411       .  A
C1757      C1758   1.402       .  A
C1757     Br1764   1.936       .  S
C1758      C1759   1.409       .  A
C1758     Br1763   1.920       .  S
C1759      C1760   1.412       .  A
C1760     Br1761   1.932       .  S
C1765      C1766   1.412       .  A
C1765      C1770   1.397       .  A
C1765     Br1772   1.921       .  S
C1766      C1767   1.404       .  A
C1767      C1768   1.404       .  A
C1767     Br1774   1.936       .  S
C1768      C1769   1.418       .  A
C1768     Br1773   1.929       .  S
C1769      C1770   1.401       .  A
C1770     Br1771   1.935       .  S
C1775      C1776   1.409       .  A
C1775      C1780   1.415       .  A
C1775     Br1782   1.937       .  S
C1776      C1777   1.418       .  A
C1777      C1778   1.415       .  A
C1777     Br1784   1.936       .  S
C1778      C1779   1.418       .  A
C1778     Br1783   1.932       .  S
C1779      C1780   1.433       .  A
C1780     Br1781   1.939       .  S
C1785      C1786   1.410       .  A
C1785      C1790   1.417       .  A
C1785     Br1792   1.931       .  S
C1786      C1787   1.416       .  A
C1787      C1788   1.413       .  A
C1787     Br1794   1.916       .  S
C1788      C1789   1.411       .  A
C1788     Br1793   1.934       .  S
C1789      C1790   1.420       .  A
C1790     Br1791   1.931       .  S
C1795      C1796   1.405       .  A
C1795      C1800   1.402       .  A
C1795     Br1802   1.928   1_565  S
C1796      C1797   1.410       .  A
C1797      C1798   1.393       .  A
C1797     Br1804   1.937       .  S
C1798      C1799   1.410       .  A
C1798     Br1803   1.939       .  S
C1799      C1800   1.408       .  A
C1800     Br1801   1.929   1_565  S
C1805      C1806   1.411       .  A
C1805      C1810   1.399       .  A
C1805     Br1812   1.926       .  S
C1806      C1807   1.404       .  A
C1807      C1808   1.402       .  A
C1807     Br1814   1.928       .  S
C1808      C1809   1.409       .  A
C1808     Br1813   1.931       .  S
C1809      C1810   1.401       .  A
C1810     Br1811   1.929       .  S
C1815      C1816   1.401       .  A
C1815      C1820   1.402       .  A
C1815     Br1822   1.914       .  S
C1816      C1817   1.399       .  A
C1817      C1818   1.400       .  A
C1817     Br1824   1.927       .  S
C1818      C1819   1.417       .  A
C1818     Br1823   1.926       .  S
C1819      C1820   1.411       .  A
C1820     Br1821   1.933       .  S
C1825      C1826   1.420       .  A
C1825      C1830   1.411       .  A
C1825     Br1832   1.936       .  S
C1826      C1827   1.413       .  A
C1827      C1828   1.421       .  A
C1827     Br1834   1.935       .  S
C1828      C1829   1.441       .  A
C1828     Br1833   1.943       .  S
C1829      C1830   1.420       .  A
C1830     Br1831   1.934       .  S
C1835      C1836   1.406       .  A
C1835      C1840   1.414       .  A
C1835     Br1842   1.917       .  S
C1836      C1837   1.419       .  A
C1837      C1838   1.420       .  A
C1837     Br1844   1.917       .  S
C1838      C1839   1.417       .  A
C1838     Br1843   1.934       .  S
C1839      C1840   1.424       .  A
C1840     Br1841   1.933       .  S
C1845      C1846   1.400       .  A
C1845      C1850   1.389       .  A
C1845     Br1852   1.923       .  S
C1846      C1847   1.407   1_554  A
C1847      C1848   1.404   1_556  A
C1847     Br1854   1.927       .  S
C1848      C1849   1.407       .  A
C1848     Br1853   1.927   1_554  S
C1849      C1850   1.411       .  A
C1850     Br1851   1.934       .  S
C1855      C1856   1.412       .  A
C1855      C1860   1.402       .  A
C1855     Br1862   1.917       .  S
C1856      C1857   1.397       .  A
C1857      C1858   1.396       .  A
C1857     Br1864   1.920       .  S
C1858      C1859   1.413       .  A
C1858     Br1863   1.920       .  S
C1859      C1860   1.400       .  A
C1860     Br1861   1.929       .  S
C1865      C1866   1.408       .  A
C1865      C1870   1.399       .  A
C1865     Br1872   1.932       .  S
C1866      C1867   1.411       .  A
C1867      C1868   1.405       .  A
C1867     Br1874   1.922       .  S
C1868      C1869   1.415       .  A
C1868     Br1873   1.937       .  S
C1869      C1870   1.419       .  A
C1870     Br1871   1.935       .  S
C1875      C1876   1.416       .  A
C1875      C1880   1.420       .  A
C1875     Br1882   1.932   1_655  S
C1876      C1877   1.420       .  A
C1877      C1878   1.416       .  A
C1877     Br1884   1.935       .  S
C1878      C1879   1.409       .  A
C1878     Br1883   1.916       .  S
C1879      C1880   1.419       .  A
C1880     Br1881   1.924       .  S
C1885      C1886   1.417       .  A
C1885      C1890   1.411       .  A
C1885     Br1892   1.936       .  S
C1886      C1887   1.414       .  A
C1887      C1888   1.421       .  A
C1887     Br1894   1.937   1_655  S
C1888      C1889   1.436       .  A
C1888     Br1893   1.942       .  S
C1889      C1890   1.420       .  A
C1890     Br1891   1.934       .  S
C1895      C1896   1.408       .  A
C1895      C1900   1.387       .  A
C1895     Br1902   1.928       .  S
C1896      C1897   1.403       .  A
C1897      C1898   1.401       .  A
C1897     Br1904   1.927       .  S
C1898      C1899   1.407       .  A
C1898     Br1903   1.927       .  S
C1899      C1900   1.402       .  A
C1900     Br1901   1.931       .  S
C1905      C1906   1.421       .  A
C1905      C1910   1.407       .  A
C1905     Br1912   1.939       .  S
C1906      C1907   1.427       .  A
C1907      C1908   1.406       .  A
C1907     Br1914   1.943       .  S
C1908      C1909   1.424       .  A
C1908     Br1913   1.949       .  S
C1909      C1910   1.409       .  A
C1910     Br1911   1.935       .  S
C1915      C1916   1.403       .  A
C1915      C1920   1.405       .  A
C1915     Br1922   1.931       .  S
C1916      C1917   1.416       .  A
C1917      C1918   1.399       .  A
C1917     Br1924   1.931       .  S
C1918      C1919   1.408       .  A
C1918     Br1923   1.936       .  S
C1919      C1920   1.411       .  A
C1920     Br1921   1.913       .  S
C1925      C1926   1.419       .  A
C1925      C1930   1.415       .  A
C1925     Br1932   1.933       .  S
C1926      C1927   1.411       .  A
C1927      C1928   1.413       .  A
C1927     Br1934   1.932       .  S
C1928      C1929   1.415       .  A
C1928     Br1933   1.920       .  S
C1929      C1930   1.411       .  A
C1930     Br1931   1.928       .  S
C1935      C1936   1.422       .  A
C1935      C1940   1.412       .  A
C1935     Br1942   1.934       .  S
C1936      C1937   1.414       .  A
C1937      C1938   1.421       .  A
C1937     Br1944   1.933       .  S
C1938      C1939   1.428       .  A
C1938     Br1943   1.934       .  S
C1939      C1940   1.412       .  A
C1940     Br1941   1.931       .  S
