geometry optimzed in LAMMPS
_audit_creation_date              2020-11-30 
_audit_creation_method            'lammps2cif' 
_symmetry_space_group_name_H-M    'P1' 
_symmetry_Int_Tables_number       1 
_symmetry_cell_setting            triclinic 
loop_ 
_symmetry_equiv_pos_as_xyz 
  x,y,z 
_cell_length_a                    39.85807854 
_cell_length_b                    40.410287747940224 
_cell_length_c                    69.01335875967028 
_cell_angle_alpha                 89.63372065677305 
_cell_angle_beta                  90.48024620047585 
_cell_angle_gamma                 89.76264813322462 
loop_ 
_atom_site_label 
_atom_site_type_symbol 
_atom_site_fract_x 
_atom_site_fract_y 
_atom_site_fract_z 
_atom_site_charge 
N1          N  0.38602330  0.30362018  0.37919901    -0.36100
N2          N  0.35999045  0.25226897  0.40422107    -0.56600
N3          N  0.37755057  0.20434049  0.37495354    -0.36000
N4          N  0.40489658  0.25639272  0.35034492    -0.56600
C5          C  0.38270614  0.31947949  0.39625618     0.27500
C6          C  0.40614669  0.32237982  0.36795715     0.27500
C7          C  0.37195383  0.18460995  0.39053303     0.27500
C8          C  0.39537287  0.18636356  0.36214502     0.27500
C9          C  0.34640526  0.27899589  0.41278719     0.36100
C10         C  0.34328628  0.22574971  0.41100562     0.36200
C11         C  0.41046277  0.28444755  0.34002514     0.36100
C12         C  0.40679578  0.23077294  0.33786974     0.36200
C13         C  0.40149956  0.34827115  0.39602936    -0.21300
C14         C  0.41615887  0.35021218  0.37809588    -0.21300
C15         C  0.38626083  0.15377576  0.38757372    -0.21300
C16         C  0.40102986  0.15485229  0.36966517    -0.21300
C17         C  0.32082337  0.26945912  0.42509012    -0.22400
C18         C  0.31906192  0.23550042  0.42409202    -0.22400
C19         C  0.41627038  0.27661303  0.32082589    -0.22400
C20         C  0.41408613  0.24256556  0.31947395    -0.22400
C21         C  0.35890035  0.31136738  0.41055125    -0.17700
C22         C  0.41285495  0.31652185  0.34821014    -0.17700
C23         C  0.40495772  0.19688977  0.34338611    -0.17700
C24         C  0.35179294  0.19285745  0.40657307    -0.17700
H25         H  0.40312697  0.36673146  0.40729148     0.15200
H26         H  0.43160384  0.37032458  0.37292902     0.15200
H27         H  0.38564023  0.13252595  0.39718911     0.15200
H28         H  0.41413527  0.13453967  0.36287879     0.15200
H29         H  0.30559513  0.28519282  0.43414026     0.13500
H30         H  0.30218607  0.21977682  0.43216428     0.13500
H31         H  0.42220903  0.29355545  0.30915056     0.13500
H32         H  0.41795357  0.22810270  0.30653228     0.13500
H33         H  0.37106367  0.28422467  0.37442430     0.26700
H34         H  0.36647910  0.22726845  0.37222667     0.26700
N35         N  0.12929030  0.20069648  0.38144926    -0.36100
N36         N  0.12459074  0.25304509  0.40987668    -0.56600
N37         N  0.12079973  0.30012893  0.37826467    -0.36000
N38         N  0.12541386  0.24678873  0.34893243    -0.56600
C39         C  0.14102568  0.18481186  0.39740482     0.27500
C40         C  0.13690748  0.18152757  0.36607516     0.27500
C41         C  0.11466720  0.32025201  0.39351804     0.27500
C42         C  0.11259578  0.31724534  0.36194348     0.27500
C43         C  0.12871055  0.22749202  0.42232271     0.36100
C44         C  0.12415615  0.28068089  0.42070199     0.36200
C45         C  0.11362226  0.21837444  0.34109161     0.36100
C46         C  0.11148160  0.27209852  0.33873909     0.36200
C47         C  0.15674433  0.15555666  0.39201833    -0.21300
C48         C  0.15433269  0.15362815  0.37221126    -0.21300
C49         C  0.10171581  0.35007633  0.38691420    -0.21300
C50         C  0.09919679  0.34774330  0.36709735    -0.21300
C51         C  0.12955120  0.23882300  0.44124500    -0.22400
C52         C  0.12713964  0.27268015  0.44018905    -0.22400
C53         C  0.09124965  0.22548423  0.32623077    -0.22400
C54         C  0.08889606  0.25955055  0.32525349    -0.22400
C55         C  0.13636159  0.19485422  0.41678593    -0.17700
C56         C  0.12373833  0.18634309  0.34726755    -0.17700
C57         C  0.11748310  0.30619008  0.34256610    -0.17700
C58         C  0.12182072  0.31311267  0.41321280    -0.17700
H59         H  0.16818294  0.13707102  0.40139861     0.15200
H60         H  0.16302755  0.13330228  0.36340621     0.15200
H61         H  0.09422947  0.37111826  0.39549848     0.15200
H62         H  0.08890452  0.36664712  0.35757225     0.15200
H63         H  0.13337329  0.22439580  0.45435246     0.13500
H64         H  0.12779078  0.28949517  0.45233104     0.13500
H65         H  0.07728486  0.20800051  0.31754285     0.13500
H66         H  0.07210658  0.27348868  0.31584858     0.13500
H67         H  0.11298220  0.22090485  0.38120444     0.26700
H68         H  0.13379348  0.27778167  0.37875697     0.26700
N69         N  0.30563478  0.46349353  0.47435714    -0.05600
N70         N  0.32570593  0.43825052  0.47032218    -0.57700
N71         N  0.27811573  0.03938348  0.46167696    -0.05200
N72         N  0.27821040  0.06404678  0.44923023    -0.59800
N73         N  0.30452261  0.04056290  0.47315530    -0.04800
N74         N  0.32327097  0.06640630  0.46845563    -0.57700
N75         N  0.27962638  0.46369495  0.46247389    -0.04500
N76         N  0.28138085  0.43892829  0.45026796    -0.60200
C77         C  0.31011837  0.42317877  0.45518535     0.96600
C78         C  0.30641611  0.08088419  0.45335011     0.96400
N79         N  0.17863601  0.03919486  0.47929265    -0.05800
N80         N  0.15926794  0.06577724  0.47793442    -0.58300
N81         N  0.20169597  0.46327454  0.46528776    -0.03900
N82         N  0.19680191  0.43921907  0.45288165    -0.59500
N83         N  0.17940863  0.46227575  0.47919793    -0.05800
N84         N  0.15878040  0.43695174  0.47645892    -0.58500
N85         N  0.20068476  0.03890924  0.46522829    -0.03500
N86         N  0.19684384  0.06505129  0.45398725    -0.59600
Mn87       Mn  0.24003201  0.00126530  0.46321071     1.18400
C88         C  0.17101347  0.08152598  0.46201566     0.98700
C89         C  0.17023860  0.42268143  0.45994323     0.99400
N90         N  0.31171903  0.04249168  0.51893929    -0.05800
N91         N  0.33180455  0.06839463  0.52091194    -0.62100
N92         N  0.29054990  0.46692234  0.53429682    -0.04600
N93         N  0.29596451  0.44410043  0.54751524    -0.62800
N94         N  0.31309315  0.46537309  0.52058781    -0.05300
N95         N  0.33445718  0.44083308  0.52445815    -0.62400
N96         N  0.28941495  0.04216701  0.53286914    -0.04200
N97         N  0.29391255  0.06737419  0.54456511    -0.63100
Mn98       Mn  0.31047227  0.00285781  0.49662591     1.10700
C99         C  0.32016612  0.08387916  0.53698070     0.99900
C100        C  0.32336773  0.42773516  0.54152413     1.00000
N101        N  0.18734019  0.46331591  0.52482329    -0.05300
N102        N  0.16954604  0.43635642  0.52806352    -0.60700
N103        N  0.21159887  0.04039496  0.53589182    -0.04600
N104        N  0.20972264  0.06436722  0.54848214    -0.57400
N105        N  0.18470985  0.03978497  0.52479473    -0.05900
N106        N  0.16359514  0.06358564  0.53002465    -0.60300
N107        N  0.21302797  0.46471316  0.53687624    -0.04900
N108        N  0.21324705  0.43888749  0.54857138    -0.57400
Mn109      Mn  0.18090358  0.00105248  0.50210977     1.20200
Mn110      Mn  0.25111126  0.00364104  0.53536903     1.10100
Cl111      Cl  0.24569215  0.00209815  0.49932692    -0.85400
C112        C  0.18612789  0.42139218  0.54292825     0.96900
C113        C  0.17969524  0.07860979  0.54506090     0.96700
N114        N  0.38498429  0.20101656  0.61772834    -0.36100
N115        N  0.37882156  0.25212993  0.58795871    -0.56600
N116        N  0.38715749  0.30127585  0.61844781    -0.36000
N117        N  0.39568076  0.25072464  0.64751215    -0.56600
C118        C  0.38567304  0.18253350  0.60141084     0.27500
C119        C  0.39676921  0.18190114  0.63252042     0.27500
C120        C  0.38900612  0.32001792  0.60222027     0.27500
C121        C  0.39924562  0.31970111  0.63322761     0.27500
C122        C  0.36829049  0.22591625  0.57752516     0.36100
C123        C  0.36837611  0.27943430  0.57817678     0.36200
C124        C  0.39322802  0.22366487  0.65895182     0.36100
C125        C  0.39518451  0.27727557  0.65931831     0.36200
C126        C  0.39769816  0.15116856  0.60590250    -0.21300
C127        C  0.40530514  0.15095486  0.62540181    -0.21300
C128        C  0.40221245  0.35070941  0.60665377    -0.21300
C129        C  0.40855139  0.35060906  0.62620079    -0.21300
C130        C  0.35241876  0.23667366  0.56064453    -0.22400
C131        C  0.35211064  0.27062383  0.56118712    -0.22400
C132        C  0.39075034  0.23314528  0.67819031    -0.22400
C133        C  0.39257642  0.26711374  0.67843401    -0.22400
C134        C  0.37286857  0.19239467  0.58301705    -0.17700
C135        C  0.39753115  0.19072176  0.65246851    -0.17700
C136        C  0.40020834  0.31018244  0.65304333    -0.17700
C137        C  0.37412209  0.31220316  0.58423430    -0.17700
H138        H  0.40047757  0.13042170  0.59621399     0.15200
H139        H  0.41506854  0.12996412  0.63350092     0.15200
H140        H  0.40562949  0.37149237  0.59690378     0.15200
H141        H  0.41797102  0.37147108  0.63430138     0.15200
H142        H  0.34168714  0.22166718  0.54925643     0.13500
H143        H  0.34121165  0.28691538  0.55031338     0.13500
H144        H  0.38921811  0.21719429  0.69080571     0.13500
H145        H  0.39254438  0.28246821  0.69122039     0.13500
H146        H  0.37305804  0.22375219  0.61908380     0.26700
H147        H  0.37390212  0.27931833  0.61969516     0.26700
N148        N  0.14754316  0.30321669  0.62671710    -0.36100
N149        N  0.13582645  0.25483555  0.65697936    -0.56600
N150        N  0.13775477  0.20279443  0.62807438    -0.36000
N151        N  0.14701058  0.25084808  0.59734899    -0.56600
C152        C  0.13746806  0.32344582  0.64120287     0.27500
C153        C  0.14721815  0.32135522  0.61015544     0.27500
C154        C  0.12703139  0.18526768  0.64358622     0.27500
C155        C  0.13284608  0.18368439  0.61223543     0.27500
C156        C  0.13711243  0.28207798  0.66816428     0.36100
C157        C  0.13360224  0.22866757  0.66911799     0.36200
C158        C  0.15793935  0.27619932  0.58630979     0.36100
C159        C  0.15212269  0.22305303  0.58696832     0.36200
C160        C  0.13140639  0.35485653  0.63374483    -0.21300
C161        C  0.13820262  0.35372089  0.61433105    -0.21300
C162        C  0.11611896  0.15436286  0.63745445    -0.21300
C163        C  0.11940079  0.15358075  0.61773862    -0.21300
C164        C  0.13634339  0.27317035  0.68757579    -0.22400
C165        C  0.13383678  0.23931863  0.68818150    -0.22400
C166        C  0.16910727  0.26451217  0.56861702    -0.22400
C167        C  0.16580004  0.23076732  0.56914170    -0.22400
C168        C  0.13428891  0.31482879  0.66107609    -0.17700
C169        C  0.15607114  0.30990517  0.59148780    -0.17700
C170        C  0.14387099  0.19088725  0.59325463    -0.17700
C171        C  0.12692391  0.19597947  0.66319283    -0.17700
H172        H  0.12320001  0.37661936  0.64146016     0.15200
H173        H  0.13635122  0.37456998  0.60448497     0.15200
H174        H  0.10700865  0.13406391  0.64620790     0.15200
H175        H  0.11347081  0.13277990  0.60853238     0.15200
H176        H  0.13598345  0.28946675  0.69995949     0.13500
H177        H  0.13113161  0.22444197  0.70115978     0.13500
H178        H  0.17861464  0.27873567  0.55653343     0.13500
H179        H  0.17245303  0.21393184  0.55764987     0.13500
H180        H  0.15708495  0.27950188  0.62815929     0.26700
H181        H  0.15116325  0.22458890  0.62856065     0.26700
N182        N  0.48054206  0.43947133  0.27267189    -0.05600
N183        N  0.47901134  0.41519679  0.28536080    -0.57700
N184        N  0.44953854  0.46961471  0.23260637    -0.05200
N185        N  0.42289859  0.46736607  0.22130038    -0.59800
N186        N  0.47163338  0.44645195  0.22849282    -0.04800
N187        N  0.45949768  0.42741555  0.21440665    -0.57700
N188        N  0.45929613  0.46338656  0.27690370    -0.04500
N189        N  0.44195443  0.45473554  0.29256117    -0.60200
C190        C  0.45521024  0.42465799  0.29782951     0.96600
C191        C  0.42905909  0.44123502  0.20981650     0.96400
N192        N  0.47980496  0.06577918  0.22996451    -0.05800
N193        N  0.47147252  0.08686904  0.21586101    -0.58300
N194        N  0.46207162  0.04727008  0.27722607    -0.03900
N195        N  0.44163940  0.05918432  0.29070464    -0.59500
N196        N  0.48608848  0.06880075  0.27391553    -0.05800
N197        N  0.48320409  0.09462886  0.28521891    -0.58500
N198        N  0.45485043  0.04511766  0.23311994    -0.03500
N199        N  0.42977477  0.05104133  0.22104223    -0.59600
Mn200      Mn  0.45559991  0.50627649  0.25571973     1.18400
C201        C  0.44026150  0.07694794  0.21037166     0.98700
C202        C  0.45577933  0.08864197  0.29585088     0.99400
N203        N  0.05600739  0.44231471  0.22643040    -0.05800
N204        N  0.06339428  0.42191374  0.21203637    -0.62100
N205        N  0.08013699  0.45597602  0.27342152    -0.04600
N206        N  0.10300068  0.44299045  0.28539934    -0.62800
N207        N  0.05608227  0.43436165  0.27032386    -0.05300
N208        N  0.06139616  0.40716826  0.28044710    -0.62400
N209        N  0.08118035  0.46280007  0.22941585    -0.04200
N210        N  0.10534007  0.45753287  0.21690131    -0.63100
Mn211      Mn  0.01579622  0.44014942  0.24874056     1.10700
C212        C  0.09400062  0.43239030  0.20598617     0.99900
C213        C  0.09059684  0.41252268  0.28981030     1.00000
N214        N  0.06213568  0.06388287  0.27310607    -0.05300
N215        N  0.06784923  0.08800921  0.28534757    -0.60700
N216        N  0.08594360  0.03771635  0.23156993    -0.04600
N217        N  0.11162368  0.04130771  0.22006028    -0.57400
N218        N  0.06394842  0.06173608  0.22903058    -0.05900
N219        N  0.07529854  0.08293454  0.21579946    -0.60300
N220        N  0.08381873  0.03945217  0.27560529    -0.04900
N221        N  0.10557317  0.04742553  0.28957179    -0.57400
Mn222      Mn  0.02296191  0.06559825  0.25082296     1.20200
Mn223      Mn  0.08335630  0.49891491  0.25322069     1.10100
Cl224      Cl  0.01940458  0.50274268  0.25214468    -0.85400
C225        C  0.09468206  0.07771954  0.29561119     0.96900
C226        C  0.10491125  0.06914811  0.21007126     0.96700
N227        N  0.47384152  0.18459722  0.97728229    -0.05600
N228        N  0.44772086  0.16474444  0.97547810    -0.57700
N229        N  0.05020680  0.20810370  0.96322983    -0.05200
N230        N  0.07335303  0.20206557  0.95015483    -0.59800
N231        N  0.05130147  0.18545815  0.97694513    -0.04800
N232        N  0.07527497  0.16374099  0.97344153    -0.57700
N233        N  0.47301906  0.20759969  0.96371522    -0.04500
N234        N  0.44650002  0.20378274  0.95239906    -0.60200
C235        C  0.43079608  0.17701062  0.95988157     0.96600
C236        C  0.08907417  0.17427542  0.95662661     0.96400
N237        N  0.04842257  0.30994099  0.97603996    -0.05800
N238        N  0.07428858  0.32988202  0.97368380    -0.58300
N239        N  0.47211808  0.28525330  0.96234963    -0.03900
N240        N  0.44871195  0.28972754  0.94902841    -0.59500
N241        N  0.47118849  0.30922631  0.97510620    -0.05800
N242        N  0.44712937  0.33059524  0.97045693    -0.58500
N243        N  0.04902005  0.28608121  0.96314212    -0.03500
N244        N  0.07518903  0.28928438  0.95177363    -0.59600
Mn245      Mn  0.01112016  0.24678542  0.96251528     1.18400
C246        C  0.09075578  0.31659098  0.95850616     0.98700
C247        C  0.43310615  0.31811271  0.95405517     0.99400
N248        N  0.05255228  0.18702939  0.02300050    -0.05800
N249        N  0.07819142  0.16709827  0.02716494    -0.62100
N250        N  0.47408213  0.20945409  0.03516399    -0.04600
N251        N  0.44802022  0.20589031  0.04657562    -0.62800
N252        N  0.47515993  0.18545322  0.02240987    -0.05300
N253        N  0.44990916  0.16487293  0.02489588    -0.62400
N254        N  0.05073274  0.21071812  0.03590482    -0.04200
N255        N  0.07456942  0.20730403  0.04901305    -0.63100
Mn256      Mn  0.01351528  0.18439655  0.99991295     1.10700
C257        C  0.09190816  0.18028396  0.04350434     0.99900
C258        C  0.43327161  0.17809891  0.03996625     1.00000
N259        N  0.47069345  0.30988497  0.02135559    -0.05300
N260        N  0.44500740  0.32990118  0.02474514    -0.60700
N261        N  0.04941766  0.28816865  0.03474689    -0.04600
N262        N  0.07537126  0.29214000  0.04645133    -0.57400
N263        N  0.04846263  0.31169600  0.02148868    -0.05900
N264        N  0.07378816  0.33237045  0.02399788    -0.60300
N265        N  0.47248325  0.28679429  0.03481607    -0.04900
N266        N  0.44848683  0.29069272  0.04755370    -0.57400
Mn267      Mn  0.00943161  0.31154718  0.99847552     1.20200
Mn268      Mn  0.01167451  0.24880074  0.03565936     1.10100
Cl269      Cl  0.01147215  0.24790593  0.99912420    -0.85400
C270        C  0.43119257  0.31746436  0.04120299     0.96900
C271        C  0.09032810  0.31971200  0.03960852     0.96700
N272        N  0.20522073  0.38495838  0.87823941    -0.36100
N273        N  0.25295035  0.40051727  0.84773806    -0.56600
N274        N  0.30691939  0.38976266  0.87548708    -0.36000
N275        N  0.25982805  0.37423235  0.90604678    -0.56600
C276        C  0.18407933  0.38652601  0.86276040     0.27500
C277        C  0.18783672  0.37159419  0.89314711     0.27500
C278        C  0.32413605  0.40379339  0.86076198     0.27500
C279        C  0.32769944  0.38915416  0.89110030     0.27500
C280        C  0.22457563  0.40382672  0.83706122     0.36100
C281        C  0.27888706  0.40528706  0.83556073     0.36200
C282        C  0.23428522  0.36571306  0.91774581     0.36100
C283        C  0.28841684  0.36795703  0.91606166     0.36200
C284        C  0.15286220  0.37460036  0.86800933    -0.21300
C285        C  0.15523958  0.36510362  0.88706660    -0.21300
C286        C  0.35594562  0.41252095  0.86721907    -0.21300
C287        C  0.35826045  0.40303177  0.88630800    -0.21300
C288        C  0.23253979  0.41127553  0.81801167    -0.22400
C289        C  0.26687551  0.41116314  0.81694292    -0.22400
C290        C  0.24674980  0.35502739  0.93555504    -0.22400
C291        C  0.28105006  0.35573005  0.93432369    -0.22400
C292        C  0.19165701  0.39833509  0.84390009    -0.17700
C293        C  0.20008735  0.36468567  0.91214727    -0.17700
C294        C  0.32105691  0.37390145  0.90912815    -0.17700
C295        C  0.31306625  0.40688757  0.84127379    -0.17700
H296        H  0.13070663  0.37238559  0.85894093     0.15200
H297        H  0.13518797  0.35420482  0.89540746     0.15200
H298        H  0.37573548  0.42396816  0.85891559     0.15200
H299        H  0.38010472  0.40567728  0.89558492     0.15200
H300        H  0.21550064  0.41554976  0.80596302     0.13500
H301        H  0.28121772  0.41582055  0.80397997     0.13500
H302        H  0.23269602  0.34640442  0.94793302     0.13500
H303        H  0.29845843  0.34832856  0.94566994     0.13500
H304        H  0.22913261  0.39485159  0.87899260     0.26700
H305        H  0.28436402  0.37713517  0.87425435     0.26700
N306        N  0.26017189  0.10730869  0.91230931    -0.36100
N307        N  0.20922892  0.09109929  0.88305784    -0.56600
N308        N  0.25977756  0.08632787  0.85333293    -0.36000
N309        N  0.31069183  0.10580104  0.88174537    -0.56600
C310        C  0.23189152  0.11585049  0.92184024     0.27500
C311        C  0.28624932  0.12119570  0.92188616     0.27500
C312        C  0.23165629  0.08444492  0.84218228     0.27500
C313        C  0.28625367  0.09014960  0.84137375     0.27500
C314        C  0.19020724  0.09122751  0.89911996     0.36100
C315        C  0.19004564  0.07832188  0.86877320     0.36200
C316        C  0.33096245  0.11266157  0.89705032     0.36100
C317        C  0.33099833  0.10095528  0.86635434     0.36200
C318        C  0.24025369  0.13388821  0.93817936    -0.21300
C319        C  0.27455926  0.13682079  0.93837940    -0.21300
C320        C  0.24051276  0.08682500  0.82284034    -0.21300
C321        C  0.27489916  0.08955538  0.82231451    -0.21300
C322        C  0.15889698  0.07806681  0.89515257    -0.22400
C323        C  0.15894923  0.06937979  0.87597766    -0.22400
C324        C  0.36415291  0.11298104  0.89120955    -0.22400
C325        C  0.36417777  0.10560121  0.87186712    -0.22400
C326        C  0.19864120  0.10811836  0.91623382    -0.17700
C327        C  0.32017676  0.12128467  0.91590831    -0.17700
C328        C  0.32041186  0.09327659  0.84717268    -0.17700
C329        C  0.19847965  0.07884143  0.84891332    -0.17700
H330        H  0.22337898  0.14409443  0.94881994     0.15200
H331        H  0.28905066  0.15002452  0.94914349     0.15200
H332        H  0.22404716  0.08589808  0.81031351     0.15200
H333        H  0.28964001  0.09111477  0.80926679     0.15200
H334        H  0.13788051  0.07600153  0.90491019     0.13500
H335        H  0.13790843  0.05920094  0.86802772     0.13500
H336        H  0.38614539  0.11847406  0.89989093     0.13500
H337        H  0.38620845  0.10428572  0.86284219     0.13500
H338        H  0.26180434  0.09171510  0.90047334     0.26700
H339        H  0.26136936  0.08189820  0.86810177     0.26700
N340        N  0.07208625  0.46570573  0.72239269    -0.05600
N341        N  0.09446519  0.44197297  0.71981609    -0.57700
N342        N  0.04691327  0.04154933  0.71004515    -0.05200
N343        N  0.05007309  0.06734818  0.69858297    -0.59800
N344        N  0.06936476  0.04213178  0.72404272    -0.04800
N345        N  0.08826171  0.06886821  0.72233581    -0.57700
N346        N  0.04947174  0.46574456  0.70843711    -0.04500
N347        N  0.05590102  0.44180947  0.69605190    -0.60200
C348        C  0.08411636  0.42734210  0.70329719     0.96600
C349        C  0.07578447  0.08449222  0.70628620     0.96400
N350        N  0.44470219  0.04050549  0.72057118    -0.05800
N351        N  0.42357949  0.06539424  0.71747317    -0.58300
N352        N  0.47064739  0.46558715  0.70620485    -0.03900
N353        N  0.46863789  0.44183227  0.69336050    -0.59500
N354        N  0.44601118  0.46359413  0.71866795    -0.05800
N355        N  0.42690085  0.43774158  0.71448862    -0.58500
N356        N  0.46919799  0.04127643  0.70793604    -0.03500
N357        N  0.46555428  0.06682190  0.69613106    -0.59600
Mn358      Mn  0.00905793  0.50343489  0.70764195     1.18400
C359        C  0.43711053  0.08160787  0.70221195     0.98700
C360        C  0.44142803  0.42428328  0.69853974     0.99400
N361        N  0.06833084  0.03667880  0.76962706    -0.05800
N362        N  0.09457797  0.05351559  0.77563853    -0.62100
N363        N  0.04405758  0.45964834  0.78052574    -0.04600
N364        N  0.05221450  0.43866130  0.79453646    -0.62800
N365        N  0.06843689  0.46149743  0.76780840    -0.05300
N366        N  0.09327523  0.44153498  0.77295774    -0.62400
N367        N  0.04581635  0.03436548  0.78340245    -0.04200
N368        N  0.05718133  0.04921124  0.79920839    -0.63100
Mn369      Mn  0.07020859  0.50166642  0.74587644     1.10700
C370        C  0.08770756  0.06122154  0.79415038     0.99900
C371        C  0.08308918  0.42742391  0.78973523     1.00000
N372        N  0.44126855  0.46181472  0.76442819    -0.05300
N373        N  0.41441971  0.44421934  0.76840549    -0.60700
N374        N  0.46469482  0.03565151  0.78073168    -0.04600
N375        N  0.45515083  0.05341399  0.79569483    -0.57400
N376        N  0.44159747  0.03664241  0.76693894    -0.05900
N377        N  0.41602073  0.05514861  0.77252752    -0.60300
N378        N  0.46276534  0.46085177  0.77901969    -0.04900
N379        N  0.45027085  0.44270530  0.79324687    -0.57400
Mn380      Mn  0.44255261  0.50069051  0.74248340     1.20200
Mn381      Mn  0.00429735  0.49756102  0.78122584     1.10100
Cl382      Cl  0.00647102  0.50082769  0.74439012    -0.85400
C383        C  0.42010835  0.43226538  0.78641637     0.96900
C384        C  0.42470237  0.06560488  0.79052370     0.96700
N385        N  0.26534677  0.13063888  0.09465546    -0.36100
N386        N  0.32031685  0.12379829  0.12248920    -0.56600
N387        N  0.27264937  0.12040116  0.15407459    -0.36000
N388        N  0.21757274  0.12454961  0.12550522    -0.56600
C389        C  0.29154588  0.12885822  0.08246335     0.27500
C390        C  0.23701023  0.12820599  0.08389386     0.27500
C391        C  0.30104269  0.10934022  0.16306444     0.27500
C392        C  0.24623287  0.11098858  0.16499094     0.27500
C393        C  0.33706037  0.13582657  0.10706583     0.36100
C394        C  0.34119331  0.12688849  0.13789127     0.36200
C395        C  0.19593063  0.13158743  0.11082586     0.36100
C396        C  0.19975558  0.12649227  0.14201538     0.36200
C397        C  0.27979879  0.12480321  0.06364980    -0.21300
C398        C  0.24529402  0.12473795  0.06453591    -0.21300
C399        C  0.29258674  0.09335926  0.18014744    -0.21300
C400        C  0.25806683  0.09459341  0.18143820    -0.21300
C401        C  0.36864570  0.14659860  0.11276348    -0.22400
C402        C  0.37135980  0.14060023  0.13227292    -0.22400
C403        C  0.16410512  0.13731070  0.11802623    -0.22400
C404        C  0.16648540  0.13401922  0.13772345    -0.22400
C405        C  0.32528128  0.13504231  0.08767796    -0.17700
C406        C  0.20414811  0.13267407  0.09091304    -0.17700
C407        C  0.21178228  0.11701346  0.16057206    -0.17700
C408        C  0.33435484  0.11491516  0.15664777    -0.17700
H409        H  0.29449996  0.12361213  0.05055524     0.15200
H410        H  0.22830657  0.12331532  0.05226019     0.15200
H411        H  0.30952171  0.08212298  0.19064220     0.15200
H412        H  0.24336070  0.08431370  0.19311445     0.15200
H413        H  0.38795677  0.15726735  0.10376847     0.13500
H414        H  0.39304553  0.14566022  0.14130426     0.13500
H415        H  0.14137457  0.14287454  0.10993472     0.13500
H416        H  0.14577175  0.13620766  0.14766305     0.13500
H417        H  0.26678344  0.13826044  0.10893821     0.26700
H418        H  0.27139442  0.13594128  0.14203087     0.26700
N419        N  0.26188504  0.37006293  0.09265898    -0.36100
N420        N  0.31332458  0.38306381  0.12209498    -0.56600
N421        N  0.26192382  0.38568329  0.15171647    -0.36000
N422        N  0.21063656  0.37490793  0.12143736    -0.56600
C423        C  0.28893285  0.37363433  0.08124133     0.27500
C424        C  0.23441900  0.37014277  0.08100872     0.27500
C425        C  0.28855165  0.39819289  0.16163976     0.27500
C426        C  0.23350278  0.39529840  0.16089717     0.27500
C427        C  0.33317408  0.37443156  0.10711143     0.36100
C428        C  0.33344089  0.38431266  0.13799474     0.36200
C429        C  0.19216433  0.36214138  0.10678851     0.36100
C430        C  0.19213669  0.37168281  0.13761031     0.36200
C431        C  0.27865511  0.37604264  0.06203271    -0.21300
C432        C  0.24414827  0.37423804  0.06190394    -0.21300
C433        C  0.27683150  0.41492023  0.17774403    -0.21300
C434        C  0.24223773  0.41354985  0.17710144    -0.21300
C435        C  0.36606836  0.37078536  0.11346714    -0.22400
C436        C  0.36631120  0.37740056  0.13291364    -0.22400
C437        C  0.16182744  0.35058114  0.11371603    -0.22400
C438        C  0.16178715  0.35669253  0.13325568    -0.22400
C439        C  0.32255669  0.37065009  0.08758046    -0.17700
C440        C  0.20140931  0.36293238  0.08705699    -0.17700
C441        C  0.20004078  0.38673485  0.15547233    -0.17700
C442        C  0.32308058  0.39448994  0.15664609    -0.17700
H443        H  0.29440123  0.37798079  0.04938347     0.15200
H444        H  0.22817897  0.37442831  0.04914114     0.15200
H445        H  0.29156387  0.42723476  0.18875854     0.15200
H446        H  0.22546478  0.42452699  0.18752490     0.15200
H447        H  0.38782794  0.36461161  0.10491374     0.13500
H448        H  0.38838336  0.37738514  0.14212667     0.13500
H449        H  0.14156338  0.33954278  0.10549979     0.13500
H450        H  0.14135316  0.35165100  0.14306106     0.13500
H451        H  0.26273214  0.36283244  0.10709721     0.26700
H452        H  0.26315374  0.36922699  0.14023088     0.26700
C453        C  0.11555964  0.06535491  0.80845821    -0.04800
C454        C  0.11625990  0.09303769  0.82075064    -0.01900
C455        C  0.14406096  0.09827369  0.83318713     0.03100
C456        C  0.17038834  0.07459493  0.83444657    -0.04800
C457        C  0.16911815  0.04631803  0.82257482    -0.01900
C458        C  0.14250750  0.04227551  0.80920933     0.03100
C459        C  0.08865153  0.11652794  0.82030388     0.37700
C460        C  0.19518053  0.02119454  0.82412183     0.37700
C461        C  0.14326790  0.01421551  0.79621425     0.36100
C462        C  0.14569098  0.12825961  0.84460041     0.36100
N463        N  0.14454904  0.99200676  0.78574788    -0.38700
N464        N  0.14694339  0.15216862  0.85371334    -0.38700
N465        N  0.21594290  0.00114648  0.82521510    -0.38100
N466        N  0.06652957  0.13516958  0.82001946    -0.38100
C467        C  0.34721681  0.08672995  0.83243637    -0.04800
C468        C  0.36619268  0.05717081  0.83377855    -0.01900
C469        C  0.39235206  0.05095533  0.82064705     0.03100
C470        C  0.39880056  0.07347633  0.80530433    -0.04800
C471        C  0.37968923  0.10290482  0.80384649    -0.01900
C472        C  0.35465238  0.10996680  0.81767220     0.03100
C473        C  0.35881323  0.03302174  0.84881649     0.37700
C474        C  0.38625280  0.12621130  0.78828697     0.37700
C475        C  0.33657085  0.14114796  0.81672380     0.36100
C476        C  0.41215718  0.02092994  0.82290680     0.36100
N477        N  0.32198552  0.16594524  0.81588612    -0.38700
N478        N  0.42794403  0.99703251  0.82490975    -0.38700
N479        N  0.39150929  0.14473330  0.77582911    -0.38100
N480        N  0.35299670  0.01377367  0.86080331    -0.38100
C481        C  0.16275704  0.40465827  0.83032274    -0.04800
C482        C  0.15590492  0.38304741  0.81476859    -0.01900
C483        C  0.12911550  0.38992337  0.80182538     0.03100
C484        C  0.10832419  0.41778667  0.80471508    -0.04800
C485        C  0.11433241  0.43858601  0.82082005    -0.01900
C486        C  0.14178480  0.43235805  0.83332013     0.03100
C487        C  0.17705037  0.35426381  0.81179331     0.37700
C488        C  0.09320415  0.46726559  0.82424262     0.37700
C489        C  0.14913706  0.45512439  0.84897961     0.36100
C490        C  0.12291357  0.36831260  0.78549495     0.36100
N491        N  0.15504561  0.47336977  0.86139683    -0.38700
N492        N  0.11797933  0.35104567  0.77247296    -0.38700
N493        N  0.07638343  0.49009432  0.82711242    -0.38100
N494        N  0.19427177  0.33157794  0.80932914    -0.38100
C495        C  0.39174628  0.42521610  0.79963141    -0.04800
C496        C  0.36630104  0.44924267  0.80260038    -0.01900
C497        C  0.34117998  0.44374944  0.81649411     0.03100
C498        C  0.33930390  0.41296139  0.82620637    -0.04800
C499        C  0.36354995  0.38819235  0.82232232    -0.01900
C500        C  0.39015843  0.39467441  0.80950094     0.03100
C501        C  0.36549328  0.47963844  0.79132026     0.37700
C502        C  0.36126266  0.35602632  0.83166099     0.37700
C503        C  0.41552823  0.36960324  0.80608249     0.36100
C504        C  0.31759094  0.47004340  0.82098771     0.36100
N505        N  0.43577663  0.34962015  0.80331205    -0.38700
N506        N  0.29872599  0.49099080  0.82446176    -0.38700
N507        N  0.35951125  0.33036926  0.83911660    -0.38100
N508        N  0.36403879  0.50371979  0.78219229    -0.38100
C509        C  0.12220460  0.16764016  0.05441802    -0.04800
C510        C  0.14062776  0.18942666  0.06666239    -0.01900
C511        C  0.16903769  0.17812695  0.07694546     0.03100
C512        C  0.17754528  0.14433764  0.07704824    -0.04800
C513        C  0.15897085  0.12211443  0.06556754    -0.01900
C514        C  0.13220928  0.13384442  0.05369542     0.03100
C515        C  0.12976823  0.22318200  0.07007397     0.37700
C516        C  0.16669190  0.08704164  0.06661998     0.37700
C517        C  0.11411580  0.11052311  0.04167638     0.36100
C518        C  0.18883378  0.20120368  0.08835592     0.36100
N519        N  0.09993804  0.09167070  0.03210324    -0.38700
N520        N  0.20454833  0.21948603  0.09749532    -0.38700
N521        N  0.17284034  0.05906792  0.06766511    -0.38100
N522        N  0.12101844  0.24977374  0.07364375    -0.38100
C523        C  0.40311291  0.16380914  0.04875020    -0.04800
C524        C  0.40476740  0.13266825  0.05802915    -0.01900
C525        C  0.37750821  0.12163687  0.06912559     0.03100
C526        C  0.34976949  0.14284677  0.07213548    -0.04800
C527        C  0.34758788  0.17337153  0.06209288    -0.01900
C528        C  0.37365236  0.18307700  0.04973979     0.03100
C529        C  0.43544790  0.11325421  0.05750249     0.37700
C530        C  0.31971516  0.19578721  0.06543226     0.37700
C531        C  0.37042444  0.21308677  0.03818698     0.36100
C532        C  0.37880887  0.08933863  0.07842349     0.36100
N533        N  0.36788241  0.23693859  0.02890710    -0.38700
N534        N  0.37986828  0.06359626  0.08585336    -0.38700
N535        N  0.29758766  0.21374750  0.06816798    -0.38100
N536        N  0.46006259  0.09797150  0.05729279    -0.38100
C537        C  0.12103795  0.33381376  0.04851645    -0.04800
C538        C  0.12018147  0.36516444  0.05738384    -0.01900
C539        C  0.14773441  0.37586326  0.06868478     0.03100
C540        C  0.17531321  0.35443049  0.07214366    -0.04800
C541        C  0.17681007  0.32379440  0.06243305    -0.01900
C542        C  0.15030842  0.31417458  0.05006618     0.03100
C543        C  0.09025513  0.38557209  0.05580900     0.37700
C544        C  0.20493089  0.30154151  0.06582871     0.37700
C545        C  0.15317809  0.28414544  0.03877620     0.36100
C546        C  0.14754552  0.40870377  0.07701344     0.36100
N547        N  0.15546138  0.26030233  0.02966963    -0.38700
N548        N  0.14749531  0.43506592  0.08345886    -0.38700
N549        N  0.22740312  0.28388159  0.06864451    -0.38100
N550        N  0.06625897  0.40171339  0.05465069    -0.38100
C551        C  0.40139155  0.33129679  0.05165043    -0.04800
C552        C  0.38261505  0.31065971  0.06435806    -0.01900
C553        C  0.35477727  0.32332997  0.07426497     0.03100
C554        C  0.34752972  0.35737256  0.07361672    -0.04800
C555        C  0.36594774  0.37831652  0.06131332    -0.01900
C556        C  0.39207282  0.36520964  0.04984950     0.03100
C557        C  0.39254048  0.27678550  0.06859155     0.37700
C558        C  0.35837514  0.41344661  0.06082455     0.39300
C559        C  0.41028510  0.38732754  0.03713867     0.36100
C560        C  0.33385643  0.30137298  0.08572771     0.36100
N561        N  0.42461278  0.40521694  0.02702327    -0.38700
N562        N  0.31695291  0.28398960  0.09473712    -0.38700
N563        N  0.35228644  0.44147255  0.06048831    -0.38100
N564        N  0.40052442  0.25012085  0.07281938    -0.38100
C565        C  0.17508373  0.35315960  0.92672053    -0.04800
C566        C  0.17297161  0.31927522  0.93165737    -0.01900
C567        C  0.14714036  0.30808161  0.94378111     0.03100
C568        C  0.12166701  0.33011503  0.94973304    -0.04800
C569        C  0.12458797  0.36426545  0.94554971    -0.01900
C570        C  0.15164350  0.37580025  0.93436810     0.03100
C571        C  0.19654540  0.29568378  0.92364098     0.37700
C572        C  0.09887328  0.38734341  0.95168510     0.37700
C573        C  0.15456338  0.41080518  0.92989787     0.36100
C574        C  0.14725772  0.27400609  0.95057037     0.36100
N575        N  0.15691787  0.43869106  0.92625849    -0.38700
N576        N  0.14753630  0.24703194  0.95630686    -0.38700
N577        N  0.07835703  0.40583295  0.95649177    -0.38100
N578        N  0.21529938  0.27683262  0.91723972    -0.38100
C579        C  0.40532168  0.33398266  0.94222315    -0.04800
C580        C  0.38771308  0.36241564  0.94890389    -0.01900
C581        C  0.36130489  0.37646071  0.93770736     0.03100
C582        C  0.35040094  0.36098908  0.92056914    -0.04800
C583        C  0.36742286  0.33274875  0.91389847    -0.01900
C584        C  0.39565220  0.32034630  0.92400184     0.03100
C585        C  0.39592894  0.37734175  0.96737678     0.37700
C586        C  0.35530511  0.31589349  0.89666693     0.37700
C587        C  0.41473958  0.29401834  0.91496479     0.36100
C588        C  0.34510079  0.40683661  0.94380278     0.36100
N589        N  0.42979158  0.27321351  0.90747760    -0.38700
N590        N  0.33214968  0.43111525  0.94855329    -0.38700
N591        N  0.34542058  0.30234705  0.88305714    -0.38100
N592        N  0.40208141  0.38939290  0.98214731    -0.38100
C593        C  0.11681918  0.15665108  0.94606909    -0.04800
C594        C  0.12887561  0.12508468  0.95250803    -0.01900
C595        C  0.15555425  0.10921909  0.94284456     0.03100
C596        C  0.17056390  0.12441526  0.92677141    -0.04800
C597        C  0.15885403  0.15544904  0.92017693    -0.01900
C598        C  0.13183337  0.17124367  0.92941748     0.03100
C599        C  0.11380580  0.10802755  0.96879524     0.37700
C600        C  0.17524078  0.17142605  0.90388103     0.37700
C601        C  0.11983131  0.20237081  0.92128203     0.36100
C602        C  0.16775521  0.07714005  0.94940795     0.36100
N603        N  0.11052814  0.22706381  0.91449779    -0.38700
N604        N  0.17753118  0.05156648  0.95462942    -0.38700
N605        N  0.18858916  0.18408795  0.89100112    -0.38100
N606        N  0.10194647  0.09412311  0.98173968    -0.38100
C607        C  0.34590400  0.13537799  0.92944360    -0.04800
C608        C  0.34979268  0.16996387  0.93064214    -0.01900
C609        C  0.37579770  0.18345599  0.94201206     0.03100
C610        C  0.39969724  0.16247445  0.95123543    -0.04800
C611        C  0.39447753  0.12777405  0.95099826    -0.01900
C612        C  0.36737024  0.11438099  0.94032108     0.03100
C613        C  0.32714507  0.19166793  0.91989831     0.37700
C614        C  0.41740939  0.10556997  0.96111979     0.37700
C615        C  0.36198816  0.07890395  0.94007053     0.36100
C616        C  0.37684780  0.21896665  0.94489105     0.36100
N617        N  0.35763535  0.05060762  0.93992103    -0.38700
N618        N  0.37713318  0.24724035  0.94742682    -0.38700
N619        N  0.43558471  0.08775516  0.96922728    -0.38100
N620        N  0.30891550  0.20874770  0.91130676    -0.38100
C621        C  0.35008500  0.40587803  0.17061034    -0.04800
C622        C  0.35578163  0.43997810  0.17305955    -0.01900
C623        C  0.38074558  0.45118718  0.18608397     0.03100
C624        C  0.40323644  0.42859334  0.19545730    -0.04800
C625        C  0.39865789  0.39429992  0.19207449    -0.01900
C626        C  0.37145675  0.38306352  0.18039190     0.03100
C627        C  0.33573269  0.46377887  0.16207243     0.37700
C628        C  0.42106164  0.37030186  0.20107277     0.37700
C629        C  0.36536165  0.34789969  0.17838925     0.36100
C630        C  0.38185466  0.48624445  0.19019140     0.36100
N631        N  0.36038927  0.31985225  0.17678015    -0.38700
N632        N  0.38122896  0.01413433  0.19378265    -0.38700
N633        N  0.43901430  0.35101846  0.20810777    -0.38100
N634        N  0.31972198  0.48265436  0.15329573    -0.38100
C635        C  0.17102119  0.39623639  0.16822156    -0.04800
C636        C  0.16699941  0.38174750  0.18673537    -0.01900
C637        C  0.14057390  0.39218851  0.19886542     0.03100
C638        C  0.11633488  0.41520754  0.19204894    -0.04800
C639        C  0.11846337  0.42715870  0.17286583    -0.01900
C640        C  0.14642248  0.41901713  0.16135202     0.03100
C641        C  0.19016230  0.35621575  0.19331605     0.37700
C642        C  0.09256479  0.44911551  0.16525048     0.37700
C643        C  0.15057578  0.43524910  0.14271693     0.36100
C644        C  0.13913374  0.38020320  0.21865642     0.36100
N645        N  0.15403408  0.44826306  0.12788968    -0.38700
N646        N  0.13840273  0.37078032  0.23450567    -0.38700
N647        N  0.07206376  0.46675456  0.15913568    -0.38100
N648        N  0.20864336  0.33575133  0.19845943    -0.38100
C649        C  0.41870429  0.09199030  0.19495271    -0.04800
C650        C  0.39653550  0.11816838  0.19938700    -0.01900
C651        C  0.36984239  0.12647973  0.18656655     0.03100
C652        C  0.36381294  0.10733958  0.16982728    -0.04800
C653        C  0.38697348  0.08202187  0.16503215    -0.01900
C654        C  0.41494326  0.07533614  0.17718511     0.03100
C655        C  0.40065889  0.13596908  0.21740668     0.37700
C656        C  0.38139013  0.06187489  0.14799212     0.37700
C657        C  0.43941316  0.05042773  0.17176629     0.36100
C658        C  0.34874056  0.15493308  0.19044247     0.36100
N659        N  0.45908185  0.03071488  0.16745515    -0.38700
N660        N  0.33198117  0.17780012  0.19332456    -0.38700
N661        N  0.37699540  0.04563700  0.13446063    -0.38100
N662        N  0.40388463  0.15020605  0.23179441    -0.38100
C663        C  0.18567448  0.10559434  0.17448685    -0.04800
C664        C  0.16676166  0.12816446  0.18560054    -0.01900
C665        C  0.13916631  0.11694659  0.19665328     0.03100
C666        C  0.13025759  0.08309350  0.19648988    -0.04800
C667        C  0.14955010  0.06080852  0.18523871    -0.01900
C668        C  0.17691361  0.07196198  0.17438949     0.03100
C669        C  0.17556210  0.16292311  0.18545358     0.37700
C670        C  0.14215824  0.02580254  0.18499452     0.37700
C671        C  0.19627571  0.04862616  0.16298022     0.36100
C672        C  0.12132510  0.13990252  0.20893956     0.36100
N673        N  0.21191844  0.03011924  0.15401344    -0.38700
N674        N  0.10728034  0.15824896  0.21884303    -0.38700
N675        N  0.13747748  0.99763670  0.18493676    -0.38100
N676        N  0.18246975  0.19071014  0.18529541    -0.38100
C677        C  0.11304575  0.17242652  0.67777074    -0.04800
C678        C  0.07883263  0.16447466  0.67647291    -0.01900
C679        C  0.06711369  0.13510844  0.68492565     0.03100
C680        C  0.08818862  0.11627806  0.69769765    -0.04800
C681        C  0.12152512  0.12733068  0.70109088    -0.01900
C682        C  0.13420158  0.15457985  0.69053688     0.03100
C683        C  0.05668777  0.18474128  0.66439580     0.37700
C684        C  0.14387454  0.10944709  0.71415804     0.37700
C685        C  0.16926439  0.16364000  0.69224061     0.36100
C686        C  0.03480609  0.12307286  0.67827623     0.36100
N687        N  0.19719024  0.17106436  0.69360490    -0.38700
N688        N  0.00970310  0.11342497  0.67199628    -0.38700
N689        N  0.16189557  0.09532891  0.72456322    -0.38100
N690        N  0.03974527  0.20097996  0.65447078    -0.38100
C691        C  0.12349657  0.34141462  0.67481439    -0.04800
C692        C  0.09036952  0.34157417  0.68202375    -0.01900
C693        C  0.07877246  0.36852903  0.69294874     0.03100
C694        C  0.09907787  0.39664348  0.69541201    -0.04800
C695        C  0.13298063  0.39554969  0.68961212    -0.01900
C696        C  0.14531455  0.36769204  0.67958652     0.03100
C697        C  0.06781614  0.31446279  0.67775575     0.37700
C698        C  0.15491004  0.42330502  0.69351551     0.37700
C699        C  0.18011507  0.36636141  0.67365097     0.36100
C700        C  0.04657678  0.36678290  0.70254519     0.36100
N701        N  0.20786829  0.36515055  0.66889601    -0.38700
N702        N  0.02119745  0.36547223  0.71053383    -0.38700
N703        N  0.17251136  0.44535765  0.69669862    -0.38100
N704        N  0.04994053  0.29270699  0.67441310    -0.38100
C705        C  0.40526121  0.16423848  0.66729636    -0.04800
C706        C  0.43493786  0.16592158  0.67868165    -0.01900
C707        C  0.44276690  0.14054228  0.69206661     0.03100
C708        C  0.42307612  0.11172528  0.69279044    -0.04800
C709        C  0.39263535  0.11051812  0.68224750    -0.01900
C710        C  0.38333603  0.13708933  0.66987757     0.03100
C711        C  0.45795894  0.19331211  0.67628889     0.37700
C712        C  0.37150792  0.08149057  0.68358903     0.37700
C713        C  0.35172342  0.13604909  0.65933266     0.36100
C714        C  0.47076340  0.14423617  0.70545409     0.36100
N715        N  0.32663359  0.13524067  0.65078787    -0.38700
N716        N  0.99286320  0.14719305  0.71628264    -0.38700
N717        N  0.35460701  0.05834306  0.68466139    -0.38100
N718        N  0.97591974  0.21550219  0.67443062    -0.38100
C719        C  0.41109940  0.33569430  0.66742543    -0.04800
C720        C  0.44474047  0.34601324  0.66736620    -0.01900
C721        C  0.45399830  0.37577083  0.67637784     0.03100
C722        C  0.43087779  0.39305243  0.68837945    -0.04800
C723        C  0.39767097  0.38061062  0.68986040    -0.01900
C724        C  0.38759586  0.35286856  0.67879914     0.03100
C725        C  0.46940513  0.32708823  0.65661721     0.37700
C726        C  0.37301093  0.39733667  0.70166746     0.37700
C727        C  0.35277370  0.34260968  0.67853377     0.36100
C728        C  0.48654493  0.38934214  0.67154374     0.36100
N729        N  0.32500250  0.33436896  0.67824262    -0.38700
N730        N  0.51215526  0.40013152  0.66695095    -0.38700
N731        N  0.35318960  0.41051791  0.71108576    -0.38100
N732        N  0.48884514  0.31197983  0.64795643    -0.38100
C733        C  0.33398360  0.11465092  0.54605716    -0.04800
C734        C  0.31214872  0.13545534  0.55666151    -0.01900
C735        C  0.32505477  0.16031607  0.56877246     0.03100
C736        C  0.35987045  0.16617225  0.56966922    -0.04800
C737        C  0.38150261  0.14803098  0.55754203    -0.01900
C738        C  0.36866745  0.12229987  0.54576417     0.03100
C739        C  0.27607029  0.13279742  0.55432994     0.37700
C740        C  0.41701239  0.15566138  0.55740536     0.37700
C741        C  0.39129581  0.10395447  0.53346460     0.36100
C742        C  0.30230966  0.18024265  0.58025675     0.36100
N743        N  0.40949986  0.08974370  0.52349418    -0.38700
N744        N  0.28422084  0.19632816  0.58928633    -0.38700
N745        N  0.44536103  0.16173660  0.55736281    -0.38100
N746        N  0.24729102  0.13133407  0.55228521    -0.38100
C747        C  0.33747060  0.39826718  0.55243966    -0.04800
C748        C  0.36491996  0.37955659  0.54526320    -0.01900
C749        C  0.37616212  0.35074101  0.55517556     0.03100
C750        C  0.36064644  0.34055612  0.57247007    -0.04800
C751        C  0.33390191  0.35925097  0.57995300    -0.01900
C752        C  0.32272640  0.38807559  0.57034766     0.03100
C753        C  0.38284636  0.39031208  0.52818604     0.37700
C754        C  0.31821853  0.34912005  0.59802566     0.37700
C755        C  0.29629190  0.40700477  0.57962342     0.36100
C756        C  0.40425418  0.33179779  0.54784165     0.36100
N757        N  0.27516419  0.42160330  0.58724060    -0.38700
N758        N  0.42653717  0.31644792  0.54202984    -0.38700
N759        N  0.30603235  0.34132863  0.61251243    -0.38100
N760        N  0.39761176  0.39884125  0.51468785    -0.38100
C761        C  0.16663495  0.10560252  0.55777271    -0.04800
C762        C  0.18230500  0.11062181  0.57610957    -0.01900
C763        C  0.17719490  0.14012376  0.58619330     0.03100
C764        C  0.15142094  0.16204474  0.58044648    -0.04800
C765        C  0.13242451  0.15521629  0.56353964    -0.01900
C766        C  0.14120351  0.12806688  0.55164074     0.03100
C767        C  0.20287237  0.08515176  0.58533471     0.37700
C768        C  0.10383056  0.17590657  0.55850989     0.37700
C769        C  0.12442186  0.12385102  0.53311231     0.36100
C770        C  0.19908970  0.14820517  0.60242773     0.36100
N771        N  0.11109674  0.12067611  0.51827503    -0.38700
N772        N  0.21676621  0.15481965  0.61520119    -0.38700
N773        N  0.08076813  0.19216835  0.55456510    -0.38100
N774        N  0.21900921  0.06485525  0.59284789    -0.38100
C775        C  0.16310098  0.33519249  0.57628466    -0.04800
C776        C  0.19649069  0.34179940  0.57096268    -0.01900
C777        C  0.20320167  0.36753960  0.55783397     0.03100
C778        C  0.17721831  0.38919254  0.55177880    -0.04800
C779        C  0.14357515  0.38113529  0.55591219    -0.01900
C780        C  0.13652760  0.35336136  0.56761436     0.03100
C781        C  0.22396660  0.32246742  0.57917039     0.37700
C782        C  0.11630384  0.40193903  0.54889266     0.37700
C783        C  0.10203732  0.34438317  0.57156998     0.36100
C784        C  0.23629474  0.37033013  0.54944688     0.36100
N785        N  0.07455776  0.33720548  0.57479257    -0.38700
N786        N  0.26224281  0.37194892  0.54213486    -0.38700
N787        N  0.09445389  0.41846067  0.54330000    -0.38100
N788        N  0.24587142  0.30700442  0.58567064    -0.38100
C789        C  0.11921511  0.15643031  0.33442424    -0.04800
C790        C  0.13563829  0.15428190  0.31637631    -0.01900
C791        C  0.13021253  0.12672827  0.30413920     0.03100
C792        C  0.11027109  0.09983901  0.31033856    -0.04800
C793        C  0.09655269  0.10054933  0.32910757    -0.01900
C794        C  0.09978023  0.12910951  0.34074618     0.03100
C795        C  0.15805822  0.18050248  0.31035495     0.37700
C796        C  0.07648848  0.07290296  0.33577158     0.37700
C797        C  0.08125984  0.13110850  0.35872578     0.36100
C798        C  0.14360343  0.12688886  0.28466784     0.36100
N799        N  0.56645124  0.13279844  0.37304280    -0.38700
N800        N  0.15403455  0.12719338  0.26906795    -0.38700
N801        N  0.06033356  0.05095646  0.34106633    -0.38100
N802        N  0.17607245  0.20141289  0.30567235    -0.38100
C803        C  0.10823199  0.38539508  0.30070953    -0.04800
C804        C  0.10581956  0.35226228  0.29421262    -0.01900
C805        C  0.11576003  0.32588503  0.30649560     0.03100
C806        C  0.12225292  0.33206583  0.32633268    -0.04800
C807        C  0.13497121  0.36427065  0.33027252    -0.01900
C808        C  0.12646550  0.39124932  0.31793677     0.03100
C809        C  0.09445367  0.34504036  0.27467562     0.37700
C810        C  0.15887432  0.36910077  0.34596513     0.37700
C811        C  0.13586437  0.42459197  0.32322363     0.36100
C812        C  0.12720171  0.29547686  0.29765943     0.36100
N813        N  0.14367650  0.45115130  0.32745590    -0.38700
N814        N  0.13683333  0.27155580  0.29038530    -0.38700
N815        N  0.17805042  0.37281437  0.35844247    -0.38100
N816        N  0.08517525  0.33896893  0.25917217    -0.38100
C817        C  0.14355824  0.16994226  0.43217069    -0.04800
C818        C  0.11810836  0.14816706  0.43828517    -0.01900
C819        C  0.12638647  0.12057410  0.44999225     0.03100
C820        C  0.16022145  0.11451330  0.45507052    -0.04800
C821        C  0.18488916  0.13838585  0.45072154    -0.01900
C822        C  0.17664295  0.16590617  0.43910268     0.03100
C823        C  0.08385358  0.15323365  0.43160495     0.37700
C824        C  0.21876287  0.13474544  0.45830634     0.37700
C825        C  0.20254222  0.18892167  0.43319013     0.36100
C826        C  0.10043022  0.09777398  0.45601976     0.36100
N827        N  0.22312508  0.20723205  0.42833478    -0.38700
N828        N  0.07962236  0.07980918  0.46100025    -0.38700
N829        N  0.24567405  0.13221577  0.46456512    -0.38100
N830        N  0.05658168  0.15731701  0.42618773    -0.38100
C831        C  0.13291493  0.34080920  0.42604053    -0.04800
C832        C  0.11004566  0.36028764  0.43659730    -0.01900
C833        C  0.12182855  0.38673784  0.44821342     0.03100
C834        C  0.15673926  0.39250973  0.45019643    -0.04800
C835        C  0.17945573  0.37102831  0.44072871    -0.01900
C836        C  0.16761121  0.34648602  0.42809512     0.03100
C837        C  0.07447692  0.35338227  0.43519060     0.37700
C838        C  0.21530463  0.37323270  0.44429204     0.37700
C839        C  0.19133031  0.32737098  0.41678402     0.36100
C840        C  0.09795277  0.40884335  0.45720684     0.36100
N841        N  0.21018323  0.31241835  0.40761328    -0.38700
N842        N  0.07876843  0.42658522  0.46422710    -0.38700
N843        N  0.24392231  0.37427400  0.44710877    -0.38100
N844        N  0.04609460  0.34772957  0.43403736    -0.38100
C845        C  0.44156599  0.11490674  0.30884473    -0.04800
C846        C  0.40667433  0.12138936  0.30994493    -0.01900
C847        C  0.39471799  0.14911285  0.32042751     0.03100
C848        C  0.41737405  0.17059241  0.32992216    -0.04800
C849        C  0.45197892  0.16395116  0.32910924    -0.01900
C850        C  0.46397363  0.13654092  0.31867218     0.03100
C851        C  0.38298542  0.10039163  0.29986346     0.37700
C852        C  0.47534327  0.18481591  0.33968030     0.37700
C853        C  0.49982955  0.13092281  0.31823567     0.36100
C854        C  0.35899352  0.15559563  0.32158659     0.36100
N855        N  0.02854595  0.12721092  0.31769683    -0.38700
N856        N  0.33049961  0.16086314  0.32257294    -0.38700
N857        N  0.49397238  0.20130607  0.34815893    -0.38100
N858        N  0.36388720  0.08374471  0.29185241    -0.38100
C859        C  0.44359967  0.40131963  0.31338234    -0.04800
C860        C  0.40920322  0.39452473  0.31611114    -0.01900
C861        C  0.39927046  0.36679041  0.32736542     0.03100
C862        C  0.42353718  0.34554218  0.33599027    -0.04800
C863        C  0.45776718  0.35358745  0.33440214    -0.01900
C864        C  0.46774497  0.38133035  0.32331449     0.03100
C865        C  0.38396396  0.41515046  0.30675989     0.37700
C866        C  0.48278666  0.33339751  0.34437652     0.37700
C867        C  0.50315111  0.38942052  0.32241974     0.36100
C868        C  0.36394367  0.35972443  0.32984149     0.36100
N869        N  0.03145528  0.39559973  0.32196517    -0.38700
N870        N  0.33573459  0.35407444  0.33179666    -0.38700
N871        N  0.50277933  0.31743653  0.35237862    -0.38100
N872        N  0.36374036  0.43164788  0.29935954    -0.38100
C873        C  0.33895141  0.16548213  0.41913758    -0.04800
C874        C  0.31400639  0.14424444  0.41193883    -0.01900
C875        C  0.30330546  0.11693425  0.42303040     0.03100
C876        C  0.31742797  0.11052966  0.44178367    -0.04800
C877        C  0.34124382  0.13318670  0.44932604    -0.01900
C878        C  0.35207027  0.16031761  0.43797140     0.03100
C879        C  0.29898405  0.15084189  0.39303205     0.37700
C880        C  0.35381115  0.12970962  0.46902058     0.37700
C881        C  0.37672801  0.18316036  0.44566511     0.36100
C882        C  0.27765463  0.09579243  0.41468577     0.36100
N883        N  0.39618018  0.20165553  0.45174647    -0.38700
N884        N  0.25699469  0.07931117  0.40794053    -0.38700
N885        N  0.36377925  0.12727853  0.48476937    -0.38100
N886        N  0.28696177  0.15611409  0.37799861    -0.38100
C887        C  0.34522833  0.33896376  0.42252258    -0.04800
C888        C  0.32779839  0.36513824  0.41321555    -0.01900
C889        C  0.31847551  0.39341255  0.42367948     0.03100
C890        C  0.32340665  0.39452771  0.44404058    -0.04800
C891        C  0.33886809  0.36725893  0.45354905    -0.01900
C892        C  0.35108061  0.34026523  0.44271031     0.03100
C893        C  0.31941092  0.36292805  0.39272938     0.37700
C894        C  0.34021635  0.36576473  0.47451369     0.37700
C895        C  0.36996426  0.31399455  0.45226091     0.36100
C896        C  0.30482775  0.42170035  0.41315057     0.36100
N897        N  0.38510185  0.29294587  0.45974913    -0.38700
N898        N  0.29419473  0.44418672  0.40459611    -0.38700
N899        N  0.34062458  0.36402113  0.49125105    -0.38100
N900        N  0.31275940  0.36098164  0.37642345    -0.38100
N901        N  0.38602252  0.80362031  0.37919852    -0.36100
N902        N  0.35999007  0.75226919  0.40422068    -0.56600
N903        N  0.37755016  0.70434054  0.37495317    -0.36000
N904        N  0.40489582  0.75639281  0.35034442    -0.56600
C905        C  0.38270554  0.81947969  0.39625569     0.27500
C906        C  0.40614576  0.82238000  0.36795658     0.27500
C907        C  0.37195358  0.68461015  0.39053273     0.27500
C908        C  0.39537254  0.68636370  0.36214468     0.27500
C909        C  0.34640488  0.77899612  0.41278681     0.36100
C910        C  0.34328595  0.72574993  0.41100527     0.36200
C911        C  0.41046198  0.78444761  0.34002461     0.36100
C912        C  0.40679524  0.73077297  0.33786929     0.36200
C913        C  0.40149891  0.84827137  0.39602880    -0.21300
C914        C  0.41615803  0.85021236  0.37809527    -0.21300
C915        C  0.38626080  0.65377602  0.38757349    -0.21300
C916        C  0.40102978  0.65485252  0.36966492    -0.21300
C917        C  0.32082303  0.76945935  0.42508977    -0.22400
C918        C  0.31906163  0.73550065  0.42409169    -0.22400
C919        C  0.41626978  0.77661301  0.32082539    -0.22400
C920        C  0.41408564  0.74256551  0.31947349    -0.22400
C921        C  0.35889994  0.81136760  0.41055086    -0.17700
C922        C  0.41285399  0.81652196  0.34820957    -0.17700
C923        C  0.40495733  0.69688981  0.34338573    -0.17700
C924        C  0.35179267  0.69285765  0.40657276    -0.17700
H925        H  0.40312645  0.86673169  0.40729090     0.15200
H926        H  0.43160306  0.87032470  0.37292840     0.15200
H927        H  0.38564037  0.63252628  0.39718894     0.15200
H928        H  0.41413532  0.63453996  0.36287858     0.15200
H929        H  0.30559481  0.78519305  0.43413991     0.13500
H930        H  0.30218588  0.71977705  0.43216400     0.13500
H931        H  0.42220848  0.79355539  0.30915004     0.13500
H932        H  0.41795324  0.72810259  0.30653186     0.13500
H933        H  0.37106295  0.78422479  0.37442390     0.26700
H934        H  0.36647845  0.72726855  0.37222624     0.26700
N935        N  0.12929050  0.70069671  0.38144907    -0.36100
N936        N  0.12459067  0.75304529  0.40987660    -0.56600
N937        N  0.12079948  0.80012922  0.37826467    -0.36000
N938        N  0.12541384  0.74678903  0.34893239    -0.56600
C939        C  0.14102590  0.68481214  0.39740463     0.27500
C940        C  0.13690776  0.68152788  0.36607496     0.27500
C941        C  0.11466686  0.82025220  0.39351806     0.27500
C942        C  0.11259556  0.81724565  0.36194349     0.27500
C943        C  0.12871059  0.72749217  0.42232259     0.36100
C944        C  0.12415612  0.78068104  0.42070195     0.36200
C945        C  0.11362241  0.71837474  0.34109147     0.36100
C946        C  0.11148160  0.77209884  0.33873907     0.36200
C947        C  0.15674472  0.65555703  0.39201811    -0.21300
C948        C  0.15433314  0.65362856  0.37221103    -0.21300
C949        C  0.10171536  0.85007651  0.38691425    -0.21300
C950        C  0.09919648  0.84774358  0.36709738    -0.21300
C951        C  0.12955141  0.73882310  0.44124489    -0.22400
C952        C  0.12713983  0.77268025  0.44018900    -0.22400
C953        C  0.09124989  0.72548456  0.32623058    -0.22400
C954        C  0.08889625  0.75955088  0.32525335    -0.22400
C955        C  0.13636168  0.69485441  0.41678575    -0.17700
C956        C  0.12373858  0.68634337  0.34726735    -0.17700
C957        C  0.11748303  0.80619042  0.34256611    -0.17700
C958        C  0.12182052  0.81311283  0.41321281    -0.17700
H959        H  0.16818337  0.63707142  0.40139839     0.15200
H960        H  0.16302812  0.63330277  0.36340596     0.15200
H961        H  0.09422891  0.87111836  0.39549856     0.15200
H962        H  0.08890422  0.86664745  0.35757230     0.15200
H963        H  0.13337365  0.72439587  0.45435234     0.13500
H964        H  0.12779107  0.78949522  0.45233100     0.13500
H965        H  0.07728523  0.70800086  0.31754258     0.13500
H966        H  0.07210689  0.77348903  0.31584839     0.13500
H967        H  0.11298226  0.72090506  0.38120428     0.26700
H968        H  0.13379333  0.77778197  0.37875694     0.26700
N969        N  0.30563465  0.96349347  0.47435719    -0.05600
N970        N  0.32570591  0.93825058  0.47032215    -0.57700
N971        N  0.27811596  0.53938354  0.46167677    -0.05200
N972        N  0.27821065  0.56404674  0.44922996    -0.59800
N973        N  0.30452283  0.54056304  0.47315511    -0.04800
N974        N  0.32327117  0.56640643  0.46845539    -0.57700
N975        N  0.27962626  0.96369490  0.46247391    -0.04500
N976        N  0.28138087  0.93892836  0.45026791    -0.60200
C977        C  0.31011846  0.92317893  0.45518524     0.96600
C978        C  0.30641634  0.58088420  0.45334982     0.96400
N979        N  0.17863629  0.53919504  0.47929254    -0.05800
N980        N  0.15926822  0.56577740  0.47793423    -0.58300
N981        N  0.20169588  0.96327439  0.46528786    -0.03900
N982        N  0.19680177  0.93921896  0.45288173    -0.59500
N983        N  0.17940857  0.96227559  0.47919804    -0.05800
N984        N  0.15878031  0.93695162  0.47645904    -0.58500
N985        N  0.20068503  0.53890933  0.46522817    -0.03500
N986        N  0.19684410  0.56505128  0.45398705    -0.59600
Mn987      Mn  0.24003219  0.50126538  0.46321062     1.18400
C988        C  0.17101373  0.58152602  0.46201541     0.98700
C989        C  0.17023845  0.92268132  0.45994334     0.99400
N990        N  0.31171927  0.54249187  0.51893914    -0.05800
N991        N  0.33180477  0.56839484  0.52091179    -0.62100
N992        N  0.29054971  0.96692223  0.53429696    -0.04600
N993        N  0.29596444  0.94410038  0.54751541    -0.62800
N994        N  0.31309292  0.96537298  0.52058793    -0.05300
N995        N  0.33445705  0.94083306  0.52445828    -0.62400
N996        N  0.28941520  0.54216718  0.53286900    -0.04200
N997        N  0.29391277  0.56737438  0.54456495    -0.63100
Mn998      Mn  0.31047250  0.50285795  0.49662579     1.10700
C999        C  0.32016633  0.58387937  0.53698055     0.99900
C1000       C  0.32336770  0.92773517  0.54152429     1.00000
N1001       N  0.18733996  0.96331570  0.52482338    -0.05300
N1002       N  0.16954577  0.93635625  0.52806368    -0.60700
N1003       N  0.21159923  0.54039505  0.53589175    -0.04600
N1004       N  0.20972304  0.56436721  0.54848214    -0.57400
N1005       N  0.18471023  0.53978517  0.52479466    -0.05900
N1006       N  0.16359556  0.56358583  0.53002463    -0.60300
N1007       N  0.21302770  0.96471303  0.53687636    -0.04900
N1008       N  0.21324673  0.93888746  0.54857157    -0.57400
Mn1009     Mn  0.18090381  0.50105268  0.50210968     1.20200
Mn1010     Mn  0.25111154  0.50364115  0.53536891     1.10100
Cl1011     Cl  0.24569237  0.50209823  0.49932681    -0.85400
C1012       C  0.18612756  0.92139213  0.54292848     0.96900
C1013       C  0.17969567  0.57860986  0.54506092     0.96700
N1014       N  0.38498402  0.70101656  0.61772853    -0.36100
N1015       N  0.37882147  0.75212991  0.58795885    -0.56600
N1016       N  0.38715796  0.80127591  0.61844784    -0.36000
N1017       N  0.39568104  0.75072478  0.64751224    -0.56600
C1018       C  0.38567258  0.68253345  0.60141105     0.27500
C1019       C  0.39676873  0.68190114  0.63252064     0.27500
C1020       C  0.38900645  0.82001792  0.60222028     0.27500
C1021       C  0.39924624  0.81970120  0.63322759     0.27500
C1022       C  0.36829045  0.72591623  0.57752528     0.36100
C1023       C  0.36837617  0.77943428  0.57817687     0.36200
C1024       C  0.39322814  0.72366509  0.65895197     0.36100
C1025       C  0.39518500  0.77727579  0.65931834     0.36200
C1026       C  0.39769738  0.65116841  0.60590276    -0.21300
C1027       C  0.40530433  0.65095473  0.62540207    -0.21300
C1028       C  0.40221289  0.85070939  0.60665371    -0.21300
C1029       C  0.40855198  0.85060912  0.62620072    -0.21300
C1030       C  0.35241897  0.73667364  0.56064458    -0.22400
C1031       C  0.35211085  0.77062381  0.56118716    -0.22400
C1032       C  0.39075057  0.73314565  0.67819044    -0.22400
C1033       C  0.39257687  0.76711410  0.67843406    -0.22400
C1034       C  0.37286830  0.69239464  0.58301723    -0.17700
C1035       C  0.39753086  0.69072188  0.65246873    -0.17700
C1036       C  0.40020907  0.81018259  0.65304331    -0.17700
C1037       C  0.37412227  0.81220313  0.58423435    -0.17700
H1038       H  0.40047659  0.63042150  0.59621427     0.15200
H1039       H  0.41506752  0.62996392  0.63350120     0.15200
H1040       H  0.40563000  0.87149227  0.59690367     0.15200
H1041       H  0.41797174  0.87147113  0.63430125     0.15200
H1042       H  0.34168744  0.72166715  0.54925644     0.13500
H1043       H  0.34121200  0.78691535  0.55031336     0.13500
H1044       H  0.38921818  0.71719477  0.69080587     0.13500
H1045       H  0.39254490  0.78246866  0.69122041     0.13500
H1046       H  0.37305800  0.72375240  0.61908396     0.26700
H1047       H  0.37390259  0.77931841  0.61969525     0.26700
N1048       N  0.14754326  0.80321665  0.62671734    -0.36100
N1049       N  0.13582647  0.75483554  0.65697957    -0.56600
N1050       N  0.13775497  0.70279438  0.62807456    -0.36000
N1051       N  0.14701096  0.75084800  0.59734920    -0.56600
C1052       C  0.13746817  0.82344578  0.64120311     0.27500
C1053       C  0.14721814  0.82135513  0.61015566     0.27500
C1054       C  0.12703141  0.68526766  0.64358637     0.27500
C1055       C  0.13284654  0.68368429  0.61223560     0.27500
C1056       C  0.13711256  0.78207793  0.66816452     0.36100
C1057       C  0.13360216  0.72866753  0.66911817     0.36200
C1058       C  0.15793971  0.77619927  0.58631002     0.36100
C1059       C  0.15212328  0.72305297  0.58696855     0.36200
C1060       C  0.13140630  0.85485645  0.63374505    -0.21300
C1061       C  0.13820242  0.85372076  0.61433126    -0.21300
C1062       C  0.11611913  0.65436280  0.63745459    -0.21300
C1063       C  0.11940120  0.65358065  0.61773877    -0.21300
C1064       C  0.13634347  0.77317023  0.68757602    -0.22400
C1065       C  0.13383673  0.73931851  0.68818169    -0.22400
C1066       C  0.16910788  0.76451215  0.56861729    -0.22400
C1067       C  0.16580076  0.73076728  0.56914197    -0.22400
C1068       C  0.13428908  0.81482876  0.66107635    -0.17700
C1069       C  0.15607128  0.80990511  0.59148803    -0.17700
C1070       C  0.14387159  0.69088717  0.59325483    -0.17700
C1071       C  0.12692373  0.69597947  0.66319298    -0.17700
H1072       H  0.12319981  0.87661927  0.64146035     0.15200
H1073       H  0.13635083  0.87456981  0.60448516     0.15200
H1074       H  0.10700885  0.63406384  0.64620804     0.15200
H1075       H  0.11347139  0.63277975  0.60853254     0.15200
H1076       H  0.13598354  0.78946657  0.69995975     0.13500
H1077       H  0.13113153  0.72444178  0.70115994     0.13500
H1078       H  0.17861533  0.77873566  0.55653373     0.13500
H1079       H  0.17245388  0.71393181  0.55765016     0.13500
H1080       H  0.15708509  0.77950180  0.62815954     0.26700
H1081       H  0.15116338  0.72458891  0.62856088     0.26700
N1082       N  0.48054181  0.93947175  0.27267170    -0.05600
N1083       N  0.47901100  0.91519718  0.28536058    -0.57700
N1084       N  0.44953857  0.96961521  0.23260614    -0.05200
N1085       N  0.42289871  0.96736670  0.22130006    -0.59800
N1086       N  0.47163335  0.94645237  0.22849264    -0.04800
N1087       N  0.45949770  0.92741605  0.21440642    -0.57700
N1088       N  0.45929587  0.96338698  0.27690348    -0.04500
N1089       N  0.44195402  0.95473590  0.29256089    -0.60200
C1090       C  0.45520978  0.92465833  0.29782922     0.96600
C1091       C  0.42905920  0.94123565  0.20981619     0.96400
N1092       N  0.47980469  0.56577878  0.22996463    -0.05800
N1093       N  0.47147210  0.58686861  0.21586115    -0.58300
N1094       N  0.46207173  0.54726967  0.27722627    -0.03900
N1095       N  0.44163958  0.55918384  0.29070490    -0.59500
N1096       N  0.48608856  0.56880037  0.27391573    -0.05800
N1097       N  0.48320425  0.59462841  0.28521918    -0.58500
N1098       N  0.45485023  0.54511719  0.23312012    -0.03500
N1099       N  0.42977449  0.55104078  0.22104244    -0.59600
Mn1100     Mn  0.45559985  0.00627693  0.25571952     1.18400
C1101       C  0.44026107  0.57694745  0.21037186     0.98700
C1102       C  0.45577951  0.58864146  0.29585117     0.99400
N1103       N  0.05600729  0.94231495  0.22643041    -0.05800
N1104       N  0.06339418  0.92191393  0.21203641    -0.62100
N1105       N  0.08013674  0.95597626  0.27342157    -0.04600
N1106       N  0.10300035  0.94299070  0.28539943    -0.62800
N1107       N  0.05608196  0.93436195  0.27032392    -0.05300
N1108       N  0.06139576  0.90716859  0.28044722    -0.62400
N1109       N  0.08118029  0.96280027  0.22941587    -0.04200
N1110       N  0.10534005  0.95753297  0.21690137    -0.63100
Mn1111     Mn  0.01579600  0.94014976  0.24874053     1.10700
C1112       C  0.09400059  0.93239036  0.20598627     0.99900
C1113       C  0.09059643  0.91252299  0.28981043     1.00000
N1114       N  0.06213577  0.56388278  0.27310603    -0.05300
N1115       N  0.06784937  0.58800926  0.28534743    -0.60700
N1116       N  0.08594359  0.53771619  0.23156985    -0.04600
N1117       N  0.11162366  0.54130759  0.22006019    -0.57400
N1118       N  0.06394839  0.56173590  0.22903051    -0.05900
N1119       N  0.07529848  0.58293438  0.21579939    -0.60300
N1120       N  0.08381886  0.53945212  0.27560528    -0.04900
N1121       N  0.10557338  0.54742566  0.28957171    -0.57400
Mn1122     Mn  0.02296192  0.56559796  0.25082295     1.20200
Mn1123     Mn  0.08335619  0.99891508  0.25322071     1.10100
Cl1124     Cl  0.01940446  0.00274300  0.25214460    -0.85400
C1125       C  0.09468227  0.57771972  0.29561102     0.96900
C1126       C  0.10491120  0.56914799  0.21007118     0.96700
N1127       N  0.47384144  0.68459766  0.97728221    -0.05600
N1128       N  0.44772070  0.66474499  0.97547805    -0.57700
N1129       N  0.05020681  0.70810386  0.96322984    -0.05200
N1130       N  0.07335302  0.70206562  0.95015482    -0.59800
N1131       N  0.05130139  0.68545831  0.97694514    -0.04800
N1132       N  0.07527479  0.66374103  0.97344151    -0.57700
N1133       N  0.47301905  0.70760011  0.96371513    -0.04500
N1134       N  0.44649999  0.70378320  0.95239897    -0.60200
C1135       C  0.43079596  0.67701116  0.95988150     0.96600
C1136       C  0.08907406  0.67427540  0.95662660     0.96400
N1137       N  0.04842256  0.80994118  0.97604001    -0.05800
N1138       N  0.07428855  0.82988224  0.97368387    -0.58300
N1139       N  0.47211808  0.78525376  0.96234963    -0.03900
N1140       N  0.44871190  0.78972806  0.94902844    -0.59500
N1141       N  0.47118853  0.80922673  0.97510622    -0.05800
N1142       N  0.44712943  0.83059571  0.97045700    -0.58500
N1143       N  0.04902006  0.78608145  0.96314215    -0.03500
N1144       N  0.07518904  0.78928468  0.95177366    -0.59600
Mn1145     Mn  0.01112015  0.74678565  0.96251531     1.18400
C1146       C  0.09075578  0.81659126  0.95850623     0.98700
C1147       C  0.43310615  0.81811324  0.95405525     0.99400
N1148       N  0.05255217  0.68702965  0.02300052    -0.05800
N1149       N  0.07819132  0.66709854  0.02716495    -0.62100
N1150       N  0.47408211  0.70945435  0.03516400    -0.04600
N1151       N  0.44802020  0.70589056  0.04657563    -0.62800
N1152       N  0.47515989  0.68545352  0.02240986    -0.05300
N1153       N  0.44990910  0.66487324  0.02489585    -0.62400
N1154       N  0.05073262  0.71071837  0.03590484    -0.04200
N1155       N  0.07456931  0.70730428  0.04901306    -0.63100
Mn1156     Mn  0.01351517  0.68439680  0.99991298     1.10700
C1157       C  0.09190807  0.68028424  0.04350434     0.99900
C1158       C  0.43327156  0.67809919  0.03996624     1.00000
N1159       N  0.47069330  0.80988527  0.02135559    -0.05300
N1160       N  0.44500717  0.82990140  0.02474508    -0.60700
N1161       N  0.04941757  0.78816892  0.03474697    -0.04600
N1162       N  0.07537105  0.79214042  0.04645147    -0.57400
N1163       N  0.04846255  0.81169622  0.02148873    -0.05900
N1164       N  0.07378799  0.83237075  0.02399795    -0.60300
N1165       N  0.47248309  0.78679459  0.03481606    -0.04900
N1166       N  0.44848660  0.79069295  0.04755366    -0.57400
Mn1167     Mn  0.00943160  0.81154739  0.99847555     1.20200
Mn1168     Mn  0.01167442  0.74880103  0.03565943     1.10100
Cl1169     Cl  0.01147211  0.74790617  0.99912426    -0.85400
C1170       C  0.43119230  0.81746455  0.04120292     0.96900
C1171       C  0.09032785  0.81971244  0.03960865     0.96700
N1172       N  0.20522070  0.88495912  0.87823966    -0.36100
N1173       N  0.25295031  0.90051775  0.84773823    -0.56600
N1174       N  0.30691934  0.88976311  0.87548720    -0.36000
N1175       N  0.25982807  0.87423327  0.90604703    -0.56600
C1176       C  0.18407924  0.88652676  0.86276068     0.27500
C1177       C  0.18783664  0.87159516  0.89314741     0.27500
C1178       C  0.32413601  0.90379382  0.86076208     0.27500
C1179       C  0.32769945  0.88915468  0.89110041     0.27500
C1180       C  0.22457556  0.90382715  0.83706141     0.36100
C1181       C  0.27888700  0.90528730  0.83556085     0.36200
C1182       C  0.23428527  0.86571388  0.91774606     0.36100
C1183       C  0.28841688  0.86795779  0.91606184     0.36200
C1184       C  0.15286202  0.87460140  0.86800968    -0.21300
C1185       C  0.15523941  0.86510479  0.88706697    -0.21300
C1186       C  0.35594558  0.91252140  0.86721915    -0.21300
C1187       C  0.35826045  0.90303225  0.88630809    -0.21300
C1188       C  0.23253968  0.91127571  0.81801182    -0.22400
C1189       C  0.26687541  0.91116317  0.81694302    -0.22400
C1190       C  0.24674992  0.85502806  0.93555525    -0.22400
C1191       C  0.28105018  0.85573071  0.93432385    -0.22400
C1192       C  0.19165694  0.89833561  0.84390032    -0.17700
C1193       C  0.20008736  0.86468654  0.91214755    -0.17700
C1194       C  0.32105693  0.87390209  0.90912829    -0.17700
C1195       C  0.31306621  0.90688785  0.84127388    -0.17700
H1196       H  0.13070640  0.87238671  0.85894132     0.15200
H1197       H  0.13518775  0.85420617  0.89540788     0.15200
H1198       H  0.37573544  0.92396857  0.85891566     0.15200
H1199       H  0.38010474  0.90567775  0.89558500     0.15200
H1200       H  0.21550051  0.91554982  0.80596317     0.13500
H1201       H  0.28121760  0.91582031  0.80398003     0.13500
H1202       H  0.23269620  0.84640496  0.94793323     0.13500
H1203       H  0.29845863  0.84832910  0.94567004     0.13500
H1204       H  0.22913263  0.89485210  0.87899278     0.26700
H1205       H  0.28436403  0.87713566  0.87425452     0.26700
N1206       N  0.26017188  0.60730848  0.91230939    -0.36100
N1207       N  0.20922888  0.59109897  0.88305794    -0.56600
N1208       N  0.25977755  0.58632719  0.85333304    -0.36000
N1209       N  0.31069180  0.60580070  0.88174540    -0.56600
C1210       C  0.23189154  0.61585020  0.92184036     0.27500
C1211       C  0.28624932  0.62119558  0.92188618     0.27500
C1212       C  0.23165626  0.58444426  0.84218240     0.27500
C1213       C  0.28625363  0.59014889  0.84137383     0.27500
C1214       C  0.19020721  0.59122729  0.89912006     0.36100
C1215       C  0.19004562  0.57832139  0.86877334     0.36200
C1216       C  0.33096242  0.61266141  0.89705031     0.36100
C1217       C  0.33099830  0.60095484  0.86635437     0.36200
C1218       C  0.24025374  0.63388793  0.93817948    -0.21300
C1219       C  0.27455931  0.63682063  0.93837945    -0.21300
C1220       C  0.24051270  0.58682429  0.82284046    -0.21300
C1221       C  0.27489908  0.58955461  0.82231461    -0.21300
C1222       C  0.15889695  0.57806654  0.89515271    -0.22400
C1223       C  0.15894923  0.56937932  0.87597782    -0.22400
C1224       C  0.36415287  0.61298095  0.89120952    -0.22400
C1225       C  0.36417773  0.60560093  0.87186712    -0.22400
C1226       C  0.19864121  0.60811813  0.91623393    -0.17700
C1227       C  0.32017675  0.62128462  0.91590829    -0.17700
C1228       C  0.32041181  0.59327602  0.84717274    -0.17700
C1229       C  0.19847962  0.57884079  0.84891344    -0.17700
H1230       H  0.22337907  0.64409412  0.94882009     0.15200
H1231       H  0.28905073  0.65002438  0.94914352     0.15200
H1232       H  0.22404708  0.58589734  0.81031363     0.15200
H1233       H  0.28963989  0.59111399  0.80926687     0.15200
H1234       H  0.13788049  0.57600128  0.90491033     0.13500
H1235       H  0.13790845  0.55920037  0.86802791     0.13500
H1236       H  0.38614533  0.61847416  0.89989087     0.13500
H1237       H  0.38620840  0.60428546  0.86284218     0.13500
H1238       H  0.26180432  0.59171490  0.90047339     0.26700
H1239       H  0.26136937  0.58189755  0.86810187     0.26700
N1240       N  0.07208652  0.96570589  0.72239286    -0.05600
N1241       N  0.09446552  0.94197317  0.71981625    -0.57700
N1242       N  0.04691293  0.54154916  0.71004512    -0.05200
N1243       N  0.05007277  0.56734804  0.69858297    -0.59800
N1244       N  0.06936445  0.54213155  0.72404268    -0.04800
N1245       N  0.08826143  0.56886797  0.72233579    -0.57700
N1246       N  0.04947207  0.96574471  0.70843726    -0.04500
N1247       N  0.05590143  0.94180967  0.69605203    -0.60200
C1248       C  0.08411678  0.92734234  0.70329732     0.96600
C1249       C  0.07578417  0.58449205  0.70628620     0.96400
N1250       N  0.44470181  0.54050530  0.72057113    -0.05800
N1251       N  0.42357913  0.56539411  0.71747321    -0.58300
N1252       N  0.47064779  0.96558738  0.70620495    -0.03900
N1253       N  0.46863838  0.94183254  0.69336057    -0.59500
N1254       N  0.44601150  0.96359434  0.71866799    -0.05800
N1255       N  0.42690120  0.93774181  0.71448859    -0.58500
N1256       N  0.46919752  0.54127625  0.70793592    -0.03500
N1257       N  0.46555378  0.56682180  0.69613100    -0.59600
Mn1258     Mn  0.00905831  0.00343509  0.70764203     1.18400
C1259       C  0.43711008  0.58160776  0.70221197     0.98700
C1260       C  0.44142849  0.92428353  0.69853974     0.99400
N1261       N  0.06833079  0.53667835  0.76962705    -0.05800
N1262       N  0.09457796  0.55351507  0.77563855    -0.62100
N1263       N  0.04405766  0.95964882  0.78052585    -0.04600
N1264       N  0.05221451  0.93866179  0.79453659    -0.62800
N1265       N  0.06843703  0.96149790  0.76780855    -0.05300
N1266       N  0.09327534  0.94153545  0.77295793    -0.62400
N1267       N  0.04581632  0.53436495  0.78340244    -0.04200
N1268       N  0.05718134  0.54921058  0.79920841    -0.63100
Mn1269     Mn  0.07020880  0.00166674  0.74587654     1.10700
C1270       C  0.08770756  0.56122089  0.79415043     0.99900
C1271       C  0.08308921  0.92742440  0.78973540     1.00000
N1272       N  0.44126863  0.96181502  0.76442826    -0.05300
N1273       N  0.41441973  0.94421973  0.76840559    -0.60700
N1274       N  0.46469460  0.53565123  0.78073167    -0.04600
N1275       N  0.45515064  0.55341372  0.79569482    -0.57400
N1276       N  0.44159723  0.53664214  0.76693894    -0.05900
N1277       N  0.41602050  0.55514833  0.77252753    -0.60300
N1278       N  0.46276541  0.96085209  0.77901977    -0.04900
N1279       N  0.45027084  0.94270575  0.79324699    -0.57400
Mn1280     Mn  0.44255282  0.00069074  0.74248344     1.20200
Mn1281     Mn  0.00429743  0.99756148  0.78122588     1.10100
Cl1282     Cl  0.00647123  0.00082798  0.74439017    -0.85400
C1283       C  0.42010833  0.93226586  0.78641649     0.96900
C1284       C  0.42470219  0.56560460  0.79052371     0.96700
N1285       N  0.26534693  0.63063913  0.09465543    -0.36100
N1286       N  0.32031680  0.62379828  0.12248932    -0.56600
N1287       N  0.27264916  0.62040116  0.15407457    -0.36000
N1288       N  0.21757273  0.62455006  0.12550510    -0.56600
C1289       C  0.29154612  0.62885826  0.08246340     0.27500
C1290       C  0.23701045  0.62820634  0.08389378     0.27500
C1291       C  0.30104240  0.60934019  0.16306450     0.27500
C1292       C  0.24623257  0.61098858  0.16499084     0.27500
C1293       C  0.33706043  0.63582657  0.10706599     0.36100
C1294       C  0.34119320  0.62688840  0.13789143     0.36200
C1295       C  0.19593073  0.63158798  0.11082571     0.36100
C1296       C  0.19975544  0.62649250  0.14201521     0.36200
C1297       C  0.27979914  0.62480312  0.06364982    -0.21300
C1298       C  0.24529436  0.62473813  0.06453586    -0.21300
C1299       C  0.29258629  0.59335921  0.18014747    -0.21300
C1300       C  0.25806638  0.59459339  0.18143812    -0.21300
C1301       C  0.36864575  0.64659852  0.11276371    -0.22400
C1302       C  0.37135976  0.64060005  0.13227313    -0.22400
C1303       C  0.16410516  0.63731117  0.11802602    -0.22400
C1304       C  0.16648528  0.63401947  0.13772323    -0.22400
C1305       C  0.32528148  0.63504231  0.08767810    -0.17700
C1306       C  0.20414832  0.63267465  0.09091290    -0.17700
C1307       C  0.21178202  0.61701348  0.16057188    -0.17700
C1308       C  0.33435459  0.61491507  0.15664790    -0.17700
H1309       H  0.29450041  0.62361177  0.05055531     0.15200
H1310       H  0.22830698  0.62331559  0.05226010     0.15200
H1311       H  0.30952115  0.58212289  0.19064226     0.15200
H1312       H  0.24336014  0.58431368  0.19311432     0.15200
H1313       H  0.38795688  0.65726725  0.10376874     0.13500
H1314       H  0.39304549  0.64565993  0.14130450     0.13500
H1315       H  0.14137466  0.64287509  0.10993447     0.13500
H1316       H  0.14577156  0.63620780  0.14766278     0.13500
H1317       H  0.26678355  0.63826076  0.10893817     0.26700
H1318       H  0.27139434  0.63594133  0.14203085     0.26700
N1319       N  0.26188479  0.87006351  0.09265896    -0.36100
N1320       N  0.31332433  0.88306423  0.12209492    -0.56600
N1321       N  0.26192358  0.88568371  0.15171642    -0.36000
N1322       N  0.21063635  0.87490860  0.12143736    -0.56600
C1323       C  0.28893260  0.87363496  0.08124131     0.27500
C1324       C  0.23441874  0.87014371  0.08100872     0.27500
C1325       C  0.28855142  0.89819327  0.16163968     0.27500
C1326       C  0.23350258  0.89529858  0.16089719     0.27500
C1327       C  0.33317380  0.87443181  0.10711138     0.36100
C1328       C  0.33344065  0.88431310  0.13799467     0.36200
C1329       C  0.19216414  0.86214210  0.10678849     0.36100
C1330       C  0.19213652  0.87168318  0.13761030     0.36200
C1331       C  0.27865483  0.87604363  0.06203272    -0.21300
C1332       C  0.24414797  0.87423924  0.06190396    -0.21300
C1333       C  0.27683130  0.91492043  0.17774402    -0.21300
C1334       C  0.24223754  0.91354992  0.17710151    -0.21300
C1335       C  0.36606806  0.87078556  0.11346709    -0.22400
C1336       C  0.36631095  0.87740089  0.13291358    -0.22400
C1337       C  0.16182733  0.85058164  0.11371597    -0.22400
C1338       C  0.16178703  0.85669286  0.13325562    -0.22400
C1339       C  0.32255642  0.87065043  0.08758040    -0.17700
C1340       C  0.20140907  0.86293328  0.08705697    -0.17700
C1341       C  0.20004060  0.88673497  0.15547238    -0.17700
C1342       C  0.32308035  0.89449041  0.15664601    -0.17700
H1343       H  0.29440094  0.87798182  0.04938347     0.15200
H1344       H  0.22817864  0.87442977  0.04914117     0.15200
H1345       H  0.29156372  0.92723490  0.18875852     0.15200
H1346       H  0.22546463  0.92452691  0.18752504     0.15200
H1347       H  0.38782761  0.86461178  0.10491367     0.13500
H1348       H  0.38838312  0.87738548  0.14212661     0.13500
H1349       H  0.14156333  0.83954326  0.10549969     0.13500
H1350       H  0.14135307  0.85165117  0.14306100     0.13500
H1351       H  0.26273188  0.86283268  0.10709714     0.26700
H1352       H  0.26315350  0.86922745  0.14023075     0.26700
C1353       C  0.11555963  0.56535421  0.80845828    -0.04800
C1354       C  0.11625988  0.59303701  0.82075071    -0.01900
C1355       C  0.14406095  0.59827304  0.83318720     0.03100
C1356       C  0.17038831  0.57459426  0.83444667    -0.04800
C1357       C  0.16911818  0.54631739  0.82257488    -0.01900
C1358       C  0.14250752  0.54227482  0.80920937     0.03100
C1359       C  0.08865162  0.61652739  0.82030390     0.37700
C1360       C  0.19518062  0.52119399  0.82412184     0.37700
C1361       C  0.14326798  0.51421482  0.79621426     0.36100
C1362       C  0.14569105  0.62825903  0.84460042     0.36100
N1363       N  0.14454910  0.49200607  0.78574789    -0.38700
N1364       N  0.14694358  0.65216808  0.85371332    -0.38700
N1365       N  0.21594300  0.50114593  0.82521509    -0.38100
N1366       N  0.06652983  0.63516924  0.82001945    -0.38100
C1367       C  0.34721670  0.58672943  0.83243640    -0.04800
C1368       C  0.36619271  0.55717041  0.83377861    -0.01900
C1369       C  0.39235211  0.55095504  0.82064712     0.03100
C1370       C  0.39880045  0.57347599  0.80530436    -0.04800
C1371       C  0.37968899  0.60290436  0.80384648    -0.01900
C1372       C  0.35465214  0.60996624  0.81767219     0.03100
C1373       C  0.35881346  0.53302141  0.84881660     0.37700
C1374       C  0.38625235  0.62621074  0.78828689     0.37700
C1375       C  0.33657055  0.64114731  0.81672379     0.36100
C1376       C  0.41215724  0.52092967  0.82290684     0.36100
N1377       N  0.32198518  0.66594457  0.81588612    -0.38700
N1378       N  0.42794408  0.49703222  0.82490975    -0.38700
N1379       N  0.39150859  0.64473262  0.77582893    -0.38100
N1380       N  0.35299716  0.51377338  0.86080349    -0.38100
C1381       C  0.16275695  0.90465876  0.83032297    -0.04800
C1382       C  0.15590467  0.88304777  0.81476890    -0.01900
C1383       C  0.12911523  0.88992370  0.80182570     0.03100
C1384       C  0.10832415  0.91778720  0.80471528    -0.04800
C1385       C  0.11433253  0.93858671  0.82082016    -0.01900
C1386       C  0.14178485  0.93235866  0.83332027     0.03100
C1387       C  0.17704993  0.85426400  0.81179374     0.37700
C1388       C  0.09320445  0.96726646  0.82424264     0.37700
C1389       C  0.14913724  0.95512510  0.84897967     0.36100
C1390       C  0.12291289  0.86831257  0.78549547     0.36100
N1391       N  0.15504586  0.97337055  0.86139684    -0.38700
N1392       N  0.11797832  0.85104524  0.77247370    -0.38700
N1393       N  0.07638388  0.99009531  0.82711241    -0.38100
N1394       N  0.19427119  0.83157799  0.80932971    -0.38100
C1395       C  0.39174622  0.92521655  0.79963151    -0.04800
C1396       C  0.36630090  0.94924303  0.80260043    -0.01900
C1397       C  0.34117976  0.94374968  0.81649410     0.03100
C1398       C  0.33930382  0.91296167  0.82620643    -0.04800
C1399       C  0.36354999  0.88819273  0.82232244    -0.01900
C1400       C  0.39015847  0.89467490  0.80950108     0.03100
C1401       C  0.36549315  0.97963884  0.79132033     0.37700
C1402       C  0.36126283  0.85602672  0.83166116     0.37700
C1403       C  0.41552844  0.86960388  0.80608274     0.36100
C1404       C  0.31759057  0.97004354  0.82098760     0.36100
N1405       N  0.43577691  0.84962087  0.80331235    -0.38700
N1406       N  0.29872564  0.99099099  0.82446160    -0.38700
N1407       N  0.35951150  0.83036973  0.83911687    -0.38100
N1408       N  0.36403860  0.00372013  0.78219231    -0.38100
C1409       C  0.12220461  0.66764053  0.05441796    -0.04800
C1410       C  0.14062768  0.68942706  0.06666235    -0.01900
C1411       C  0.16903769  0.67812744  0.07694538     0.03100
C1412       C  0.17754551  0.64433818  0.07704807    -0.04800
C1413       C  0.15897116  0.62211494  0.06556736    -0.01900
C1414       C  0.13220952  0.63384486  0.05369527     0.03100
C1415       C  0.12976794  0.72318232  0.07007402     0.37700
C1416       C  0.16669242  0.58704218  0.06661970     0.37700
C1417       C  0.11411615  0.61052355  0.04167618     0.36100
C1418       C  0.18883360  0.70120419  0.08835590     0.36100
N1419       N  0.09993835  0.59167123  0.03210300    -0.38700
N1420       N  0.20454806  0.71948655  0.09749535    -0.38700
N1421       N  0.17284104  0.55906849  0.06766468    -0.38100
N1422       N  0.12101794  0.74977396  0.07364387    -0.38100
C1423       C  0.40311297  0.66380931  0.04875025    -0.04800
C1424       C  0.40476768  0.63266852  0.05802931    -0.01900
C1425       C  0.37750858  0.62163707  0.06912580     0.03100
C1426       C  0.34976977  0.64284686  0.07213567    -0.04800
C1427       C  0.34758798  0.67337154  0.06209301    -0.01900
C1428       C  0.37365234  0.68307701  0.04973985     0.03100
C1429       C  0.43544840  0.61325478  0.05750282     0.37700
C1430       C  0.31971512  0.69578707  0.06543232     0.37700
C1431       C  0.37042421  0.71308663  0.03818695     0.36100
C1432       C  0.37880942  0.58933887  0.07842375     0.36100
N1433       N  0.36788210  0.73693832  0.02890696    -0.38700
N1434       N  0.37986900  0.56359653  0.08585364    -0.38700
N1435       N  0.29758748  0.71374720  0.06816797    -0.38100
N1436       N  0.46006324  0.59797230  0.05729334    -0.38100
C1437       C  0.12103766  0.83381428  0.04851658    -0.04800
C1438       C  0.12018111  0.86516502  0.05738393    -0.01900
C1439       C  0.14773409  0.87586399  0.06868481     0.03100
C1440       C  0.17531298  0.85443131  0.07214365    -0.04800
C1441       C  0.17680989  0.82379518  0.06243308    -0.01900
C1442       C  0.15030820  0.81417520  0.05006629     0.03100
C1443       C  0.09025470  0.88557258  0.05580908     0.37700
C1444       C  0.20493083  0.80154243  0.06582868     0.37700
C1445       C  0.15317791  0.78414599  0.03877635     0.36100
C1446       C  0.14754519  0.90870456  0.07701343     0.36100
N1447       N  0.15546114  0.76030284  0.02966979    -0.38700
N1448       N  0.14749502  0.93506673  0.08345882    -0.38700
N1449       N  0.22740322  0.78388266  0.06864440    -0.38100
N1450       N  0.06625849  0.90171383  0.05465081    -0.38100
C1451       C  0.40139123  0.83129694  0.05165033    -0.04800
C1452       C  0.38261476  0.81065991  0.06435801    -0.01900
C1453       C  0.35477701  0.82333022  0.07426494     0.03100
C1454       C  0.34752938  0.85737281  0.07361662    -0.04800
C1455       C  0.36594728  0.87831667  0.06131309    -0.01900
C1456       C  0.39207244  0.86520975  0.04984935     0.03100
C1457       C  0.39254019  0.77678568  0.06859149     0.37700
C1458       C  0.35837459  0.91344673  0.06082414     0.39300
C1459       C  0.41028474  0.88732759  0.03713851     0.36100
C1460       C  0.33385618  0.80137326  0.08572771     0.36100
N1461       N  0.42461236  0.90521700  0.02702309    -0.38700
N1462       N  0.31695267  0.78398987  0.09473710    -0.38700
N1463       N  0.35228587  0.94147267  0.06048773    -0.38100
N1464       N  0.40052411  0.75012099  0.07281924    -0.38100
C1465       C  0.17508380  0.85316029  0.92672079    -0.04800
C1466       C  0.17297172  0.81927585  0.93165747    -0.01900
C1467       C  0.14714041  0.80808207  0.94378112     0.03100
C1468       C  0.12166704  0.83011539  0.94973316    -0.04800
C1469       C  0.12458811  0.86426589  0.94555008    -0.01900
C1470       C  0.15164361  0.87580084  0.93436850     0.03100
C1471       C  0.19654558  0.79568450  0.92364101     0.37700
C1472       C  0.09887360  0.88734381  0.95168576     0.37700
C1473       C  0.15456346  0.91080584  0.92989844     0.36100
C1474       C  0.14725770  0.77400647  0.95057019     0.36100
N1475       N  0.15691785  0.93869179  0.92625921    -0.38700
N1476       N  0.14753627  0.74703219  0.95630646    -0.38700
N1477       N  0.07835745  0.90583326  0.95649266    -0.38100
N1478       N  0.21529959  0.77683338  0.91723972    -0.38100
C1479       C  0.40532178  0.83398333  0.94222322    -0.04800
C1480       C  0.38771317  0.86241627  0.94890401    -0.01900
C1481       C  0.36130497  0.87646138  0.93770750     0.03100
C1482       C  0.35040097  0.86098973  0.92056928    -0.04800
C1483       C  0.36742291  0.83274943  0.91389858    -0.01900
C1484       C  0.39565238  0.82034711  0.92400186     0.03100
C1485       C  0.39592919  0.87734242  0.96737687     0.37700
C1486       C  0.35530497  0.81589404  0.89666711     0.37700
C1487       C  0.41474005  0.79401951  0.91496464     0.36100
C1488       C  0.34510090  0.90683732  0.94380292     0.36100
N1489       N  0.42979229  0.77321500  0.90747731    -0.38700
N1490       N  0.33214973  0.93111593  0.94855342    -0.38700
N1491       N  0.34542013  0.80234753  0.88305743    -0.38100
N1492       N  0.40208187  0.88939365  0.98214735    -0.38100
C1493       C  0.11681914  0.65665100  0.94606912    -0.04800
C1494       C  0.12887570  0.62508471  0.95250818    -0.01900
C1495       C  0.15555433  0.60921907  0.94284471     0.03100
C1496       C  0.17056396  0.62441512  0.92677152    -0.04800
C1497       C  0.15885412  0.65544887  0.92017699    -0.01900
C1498       C  0.13183333  0.67124345  0.92941746     0.03100
C1499       C  0.11380609  0.60802780  0.96879552     0.37700
C1500       C  0.17524094  0.67142582  0.90388109     0.37700
C1501       C  0.11983123  0.70237048  0.92128192     0.36100
C1502       C  0.16775533  0.57714010  0.94940820     0.36100
N1503       N  0.11052808  0.72706342  0.91449761    -0.38700
N1504       N  0.17753119  0.55156658  0.95462981    -0.38700
N1505       N  0.18858935  0.68408765  0.89100116    -0.38100
N1506       N  0.10194694  0.59412358  0.98174010    -0.38100
C1507       C  0.34590399  0.63537811  0.92944352    -0.04800
C1508       C  0.34979254  0.66996400  0.93064199    -0.01900
C1509       C  0.37579756  0.68345625  0.94201187     0.03100
C1510       C  0.39969720  0.66247486  0.95123528    -0.04800
C1511       C  0.39447765  0.62777446  0.95099811    -0.01900
C1512       C  0.36737035  0.61438125  0.94032102     0.03100
C1513       C  0.32714486  0.69166793  0.91989809     0.37700
C1514       C  0.41740971  0.60557051  0.96111956     0.37700
C1515       C  0.36198829  0.57890421  0.94007062     0.36100
C1516       C  0.37684770  0.71896692  0.94489069     0.36100
N1517       N  0.35763537  0.55060789  0.93992120    -0.38700
N1518       N  0.37713315  0.74724067  0.94742627    -0.38700
N1519       N  0.43558521  0.58775582  0.96922700    -0.38100
N1520       N  0.30891527  0.70874762  0.91130649    -0.38100
C1521       C  0.35008475  0.90587854  0.17061027    -0.04800
C1522       C  0.35578137  0.93997862  0.17305948    -0.01900
C1523       C  0.38074555  0.95118775  0.18608374     0.03100
C1524       C  0.40323646  0.92859393  0.19545704    -0.04800
C1525       C  0.39865779  0.89430050  0.19207431    -0.01900
C1526       C  0.37145654  0.88306408  0.18039181     0.03100
C1527       C  0.33573224  0.96377935  0.16207247     0.37700
C1528       C  0.42106162  0.87030245  0.20107252     0.37700
C1529       C  0.36536140  0.84790024  0.17838923     0.36100
C1530       C  0.38185479  0.98624505  0.19019109     0.36100
N1531       N  0.36038900  0.81985279  0.17678025    -0.38700
N1532       N  0.38122867  0.51413372  0.19378297    -0.38700
N1533       N  0.43901427  0.85101899  0.20810747    -0.38100
N1534       N  0.31972141  0.98265487  0.15329585    -0.38100
C1535       C  0.17102102  0.89623638  0.16822163    -0.04800
C1536       C  0.16699940  0.88174755  0.18673547    -0.01900
C1537       C  0.14057403  0.89218866  0.19886560     0.03100
C1538       C  0.11633485  0.91520751  0.19204909    -0.04800
C1539       C  0.11846319  0.92715855  0.17286596    -0.01900
C1540       C  0.14642224  0.91901707  0.16135212     0.03100
C1541       C  0.19016235  0.85621584  0.19331613     0.37700
C1542       C  0.09256452  0.94911520  0.16525062     0.37700
C1543       C  0.15057540  0.93524914  0.14271704     0.36100
C1544       C  0.13913414  0.88020360  0.21865667     0.36100
N1545       N  0.15403355  0.94826314  0.12788979    -0.38700
N1546       N  0.13840325  0.87078085  0.23450594    -0.38700
N1547       N  0.07206340  0.96675413  0.15913580    -0.38100
N1548       N  0.20864352  0.83575154  0.19845954    -0.38100
C1549       C  0.41870376  0.59198976  0.19495293    -0.04800
C1550       C  0.39653508  0.61816795  0.19938718    -0.01900
C1551       C  0.36984207  0.62647944  0.18656670     0.03100
C1552       C  0.36381255  0.60733929  0.16982745    -0.04800
C1553       C  0.38697290  0.58202139  0.16503239    -0.01900
C1554       C  0.41494265  0.57533559  0.17718535     0.03100
C1555       C  0.40065858  0.63596875  0.21740680     0.37700
C1556       C  0.38138941  0.56187431  0.14799240     0.37700
C1557       C  0.43941247  0.55042711  0.17176655     0.36100
C1558       C  0.34874043  0.65493293  0.19044257     0.36100
N1559       N  0.45908107  0.53071416  0.16745544    -0.38700
N1560       N  0.33198117  0.67780008  0.19332458    -0.38700
N1561       N  0.37699462  0.54563632  0.13446096    -0.38100
N1562       N  0.40388439  0.65020586  0.23179448    -0.38100
C1563       C  0.18567415  0.60559430  0.17448661    -0.04800
C1564       C  0.16676131  0.62816439  0.18560030    -0.01900
C1565       C  0.13916600  0.61694650  0.19665306     0.03100
C1566       C  0.13025745  0.58309336  0.19648975    -0.04800
C1567       C  0.14955002  0.56080839  0.18523860    -0.01900
C1568       C  0.17691340  0.57196192  0.17438930     0.03100
C1569       C  0.17556179  0.66292301  0.18545340     0.37700
C1570       C  0.14215846  0.52580233  0.18499458     0.37700
C1571       C  0.19627549  0.54862614  0.16298001     0.36100
C1572       C  0.12132471  0.63990240  0.20893931     0.36100
N1573       N  0.21191815  0.53011924  0.15401317    -0.38700
N1574       N  0.10727979  0.65824876  0.21884277    -0.38700
N1575       N  0.13747800  0.49763644  0.18493702    -0.38100
N1576       N  0.18246950  0.69071003  0.18529528    -0.38100
C1577       C  0.11304549  0.67242650  0.67777085    -0.04800
C1578       C  0.07883238  0.66447449  0.67647288    -0.01900
C1579       C  0.06711344  0.63510825  0.68492560     0.03100
C1580       C  0.08818831  0.61627793  0.69769768    -0.04800
C1581       C  0.12152475  0.62733065  0.70109101    -0.01900
C1582       C  0.13420126  0.65457988  0.69053707     0.03100
C1583       C  0.05668755  0.68474099  0.66439567     0.37700
C1584       C  0.14387409  0.60944713  0.71415823     0.37700
C1585       C  0.16926408  0.66364008  0.69224091     0.36100
C1586       C  0.03480586  0.62307261  0.67827612     0.36100
N1587       N  0.19718990  0.67106453  0.69360531    -0.38700
N1588       N  0.00970287  0.61342472  0.67199615    -0.38700
N1589       N  0.16189506  0.59532908  0.72456351    -0.38100
N1590       N  0.03974496  0.70097951  0.65447061    -0.38100
C1591       C  0.12349683  0.84141463  0.67481466    -0.04800
C1592       C  0.09036988  0.84157418  0.68202417    -0.01900
C1593       C  0.07877286  0.86852915  0.69294908     0.03100
C1594       C  0.09907825  0.89664367  0.69541217    -0.04800
C1595       C  0.13298094  0.89554987  0.68961216    -0.01900
C1596       C  0.14531480  0.86769213  0.67958661     0.03100
C1597       C  0.06781655  0.81446265  0.67775642     0.37700
C1598       C  0.15491038  0.92330523  0.69351545     0.37700
C1599       C  0.18011522  0.86636153  0.67365088     0.36100
C1600       C  0.04657720  0.86678316  0.70254556     0.36100
N1601       N  0.20786833  0.86515075  0.66889572    -0.38700
N1602       N  0.02119783  0.86547268  0.71053417    -0.38700
N1603       N  0.17251176  0.94535784  0.69669848    -0.38100
N1604       N  0.04994100  0.79270671  0.67441398    -0.38100
C1605       C  0.40526079  0.66423862  0.66729662    -0.04800
C1606       C  0.43493753  0.66592153  0.67868185    -0.01900
C1607       C  0.44276653  0.64054221  0.69206680     0.03100
C1608       C  0.42307567  0.61172528  0.69279061    -0.04800
C1609       C  0.39263481  0.61051828  0.68224776    -0.01900
C1610       C  0.38333550  0.63708958  0.66987790     0.03100
C1611       C  0.45795870  0.69331193  0.67628907     0.37700
C1612       C  0.37150736  0.58149073  0.68358926     0.37700
C1613       C  0.35172284  0.63604949  0.65933306     0.36100
C1614       C  0.47076314  0.64423596  0.70545424     0.36100
N1615       N  0.32663300  0.63524116  0.65078830    -0.38700
N1616       N  0.99286324  0.64719257  0.71628268    -0.38700
N1617       N  0.35460645  0.55834321  0.68466155    -0.38100
N1618       N  0.97591973  0.71550195  0.67443091    -0.38100
C1619       C  0.41110013  0.83569451  0.66742539    -0.04800
C1620       C  0.44474120  0.84601347  0.66736620    -0.01900
C1621       C  0.45399898  0.87577108  0.67637785     0.03100
C1622       C  0.43087839  0.89305266  0.68837944    -0.04800
C1623       C  0.39767154  0.88061090  0.68986028    -0.01900
C1624       C  0.38759652  0.85286887  0.67879899     0.03100
C1625       C  0.46940587  0.82708848  0.65661721     0.37700
C1626       C  0.37301132  0.89733704  0.70166718     0.37700
C1627       C  0.35277434  0.84261013  0.67853343     0.36100
C1628       C  0.48654555  0.88934251  0.67154374     0.36100
N1629       N  0.32500315  0.83436944  0.67824206    -0.38700
N1630       N  0.51215582  0.90013203  0.66695094    -0.38700
N1631       N  0.35318982  0.91051836  0.71108532    -0.38100
N1632       N  0.48884588  0.81198007  0.64795643    -0.38100
C1633       C  0.33398375  0.61465114  0.54605703    -0.04800
C1634       C  0.31214877  0.63545553  0.55666131    -0.01900
C1635       C  0.32505466  0.66031613  0.56877241     0.03100
C1636       C  0.35987032  0.66617226  0.56966933    -0.04800
C1637       C  0.38150262  0.64803105  0.55754219    -0.01900
C1638       C  0.36866760  0.62230005  0.54576420     0.03100
C1639       C  0.27607040  0.63279768  0.55432954     0.37700
C1640       C  0.41701239  0.65566140  0.55740568     0.37700
C1641       C  0.39129610  0.60395468  0.53346469     0.36100
C1642       C  0.30230943  0.68024262  0.58025667     0.36100
N1643       N  0.40950029  0.58974395  0.52349435    -0.38700
N1644       N  0.28422054  0.69632814  0.58928621    -0.38700
N1645       N  0.44536104  0.66173658  0.55736324    -0.38100
N1646       N  0.24729117  0.63133432  0.55228462    -0.38100
C1647       C  0.33747065  0.89826716  0.55243978    -0.04800
C1648       C  0.36491990  0.87955652  0.54526323    -0.01900
C1649       C  0.37616210  0.85074093  0.55517558     0.03100
C1650       C  0.36064656  0.84055608  0.57247014    -0.04800
C1651       C  0.33390212  0.85925096  0.57995313    -0.01900
C1652       C  0.32272661  0.88807560  0.57034782     0.03100
C1653       C  0.38284607  0.89031191  0.52818598     0.37700
C1654       C  0.31821878  0.84911998  0.59802580     0.37700
C1655       C  0.29629244  0.90700500  0.57962372     0.36100
C1656       C  0.40425400  0.83179761  0.54784158     0.36100
N1657       N  0.27516508  0.92160380  0.58724105    -0.38700
N1658       N  0.42653688  0.81644764  0.54202970    -0.38700
N1659       N  0.30603261  0.84132842  0.61251255    -0.38100
N1660       N  0.39761125  0.89884102  0.51468768    -0.38100
C1661       C  0.16663547  0.60560260  0.55777276    -0.04800
C1662       C  0.18230565  0.61062191  0.57610958    -0.01900
C1663       C  0.17719553  0.64012379  0.58619337     0.03100
C1664       C  0.15142151  0.66204473  0.58044663    -0.04800
C1665       C  0.13242492  0.65521625  0.56353985    -0.01900
C1666       C  0.14120389  0.62806689  0.55164089     0.03100
C1667       C  0.20287317  0.58515191  0.58533466     0.37700
C1668       C  0.10383084  0.67590645  0.55851023     0.37700
C1669       C  0.12442203  0.62385102  0.53311251     0.36100
C1670       C  0.19909030  0.64820515  0.60242782     0.36100
N1671       N  0.11109672  0.62067610  0.51827528    -0.38700
N1672       N  0.21676669  0.65481964  0.61520132    -0.38700
N1673       N  0.08076841  0.69216823  0.55456545    -0.38100
N1674       N  0.21901018  0.56485546  0.59284777    -0.38100
C1675       C  0.16310103  0.83519244  0.57628490    -0.04800
C1676       C  0.19649073  0.84179950  0.57096294    -0.01900
C1677       C  0.20320161  0.86753966  0.55783419     0.03100
C1678       C  0.17721813  0.88919244  0.55177898    -0.04800
C1679       C  0.14357500  0.88113507  0.55591238    -0.01900
C1680       C  0.13652756  0.85336110  0.56761453     0.03100
C1681       C  0.22396671  0.82246772  0.57917075     0.37700
C1682       C  0.11630362  0.90193879  0.54889292     0.37700
C1683       C  0.10203731  0.84438268  0.57157011     0.36100
C1684       C  0.23629471  0.87033038  0.54944715     0.36100
N1685       N  0.07455781  0.83720476  0.57479270    -0.38700
N1686       N  0.26224279  0.87194938  0.54213516    -0.38700
N1687       N  0.09445362  0.91846040  0.54330030    -0.38100
N1688       N  0.24587153  0.80700493  0.58567115    -0.38100
C1689       C  0.11921534  0.65643059  0.33442402    -0.04800
C1690       C  0.13563829  0.65428227  0.31637602    -0.01900
C1691       C  0.13021251  0.62672864  0.30413890     0.03100
C1692       C  0.11027125  0.59983930  0.31033833    -0.04800
C1693       C  0.09655296  0.60054957  0.32910737    -0.01900
C1694       C  0.09978064  0.62910969  0.34074602     0.03100
C1695       C  0.15805796  0.68050295  0.31035456     0.37700
C1696       C  0.07648874  0.57290320  0.33577140     0.37700
C1697       C  0.08126057  0.63110853  0.35872573     0.36100
C1698       C  0.14360307  0.62688935  0.28466746     0.36100
N1699       N  0.56645295  0.63279794  0.37304294    -0.38700
N1700       N  0.15403382  0.62719389  0.26906748    -0.38700
N1701       N  0.06033381  0.55095673  0.34106618    -0.38100
N1702       N  0.17607196  0.70141343  0.30567180    -0.38100
C1703       C  0.10823161  0.88539542  0.30070964    -0.04800
C1704       C  0.10581934  0.85226264  0.29421267    -0.01900
C1705       C  0.11576001  0.82588542  0.30649562     0.03100
C1706       C  0.12225288  0.83206619  0.32633271    -0.04800
C1707       C  0.13497104  0.86427103  0.33027258    -0.01900
C1708       C  0.12646515  0.89124970  0.31793686     0.03100
C1709       C  0.09445359  0.84504076  0.27467563     0.37700
C1710       C  0.15887410  0.86910122  0.34596521     0.37700
C1711       C  0.13586388  0.92459238  0.32322376     0.36100
C1712       C  0.12720219  0.79547747  0.29765945     0.36100
N1713       N  0.14367593  0.95115172  0.32745604    -0.38700
N1714       N  0.13683430  0.77155652  0.29038541    -0.38700
N1715       N  0.17805013  0.87281486  0.35844259    -0.38100
N1716       N  0.08517524  0.83896941  0.25917216    -0.38100
C1717       C  0.14355830  0.66994238  0.43217046    -0.04800
C1718       C  0.11810851  0.64816683  0.43828466    -0.01900
C1719       C  0.12638669  0.62057378  0.44999165     0.03100
C1720       C  0.16022164  0.61451325  0.45507015    -0.04800
C1721       C  0.18488924  0.63838603  0.45072137    -0.01900
C1722       C  0.17664296  0.66590643  0.43910257     0.03100
C1723       C  0.08385379  0.65323315  0.43160424     0.37700
C1724       C  0.21876297  0.63474567  0.45830616     0.37700
C1725       C  0.20254211  0.68892225  0.43319024     0.36100
C1726       C  0.10043059  0.59777323  0.45601882     0.36100
N1727       N  0.22312480  0.70723295  0.42833509    -0.38700
N1728       N  0.07962286  0.57980800  0.46099897    -0.38700
N1729       N  0.24567423  0.63221601  0.46456484    -0.38100
N1730       N  0.05658194  0.65731626  0.42618687    -0.38100
C1731       C  0.13291474  0.84080932  0.42604054    -0.04800
C1732       C  0.11004547  0.86028758  0.43659742    -0.01900
C1733       C  0.12182835  0.88673771  0.44821360     0.03100
C1734       C  0.15673908  0.89250965  0.45019655    -0.04800
C1735       C  0.17945555  0.87102835  0.44072876    -0.01900
C1736       C  0.16761102  0.84648620  0.42809509     0.03100
C1737       C  0.07447675  0.85338203  0.43519080     0.37700
C1738       C  0.21530445  0.87323268  0.44429214     0.37700
C1739       C  0.19133011  0.82737138  0.41678385     0.36100
C1740       C  0.09795257  0.90884309  0.45720713     0.36100
N1741       N  0.21018297  0.81241887  0.40761300    -0.38700
N1742       N  0.07876824  0.92658486  0.46422750    -0.38700
N1743       N  0.24392212  0.87427398  0.44710893    -0.38100
N1744       N  0.04609446  0.84772910  0.43403764    -0.38100
C1745       C  0.44156597  0.61490627  0.30884489    -0.04800
C1746       C  0.40667428  0.62138883  0.30994498    -0.01900
C1747       C  0.39471782  0.64911254  0.32042732     0.03100
C1748       C  0.41737380  0.67059238  0.32992186    -0.04800
C1749       C  0.45197870  0.66395114  0.32910907    -0.01900
C1750       C  0.46397349  0.63654059  0.31867231     0.03100
C1751       C  0.38298545  0.60039083  0.29986363     0.37700
C1752       C  0.47534295  0.68481615  0.33968004     0.37700
C1753       C  0.49982937  0.63092216  0.31823613     0.36100
C1754       C  0.35899329  0.65559519  0.32158636     0.36100
N1755       N  0.02854585  0.62721092  0.31769697    -0.38700
N1756       N  0.33049937  0.66086261  0.32257276    -0.38700
N1757       N  0.49397189  0.70130656  0.34815863    -0.38100
N1758       N  0.36388723  0.58374373  0.29185270    -0.38100
C1759       C  0.44359901  0.90131986  0.31338196    -0.04800
C1760       C  0.40920252  0.89452501  0.31611069    -0.01900
C1761       C  0.39926965  0.86679066  0.32736494     0.03100
C1762       C  0.42353630  0.84554230  0.33598973    -0.04800
C1763       C  0.45776632  0.85358757  0.33440170    -0.01900
C1764       C  0.46774421  0.88133053  0.32331414     0.03100
C1765       C  0.38396334  0.91515087  0.30675950     0.37700
C1766       C  0.48278570  0.83339756  0.34437608     0.37700
C1767       C  0.50315036  0.88942069  0.32241953     0.36100
C1768       C  0.36394283  0.85972478  0.32984100     0.36100
N1769       N  0.03145439  0.89559896  0.32196475    -0.38700
N1770       N  0.33573371  0.85407492  0.33179610    -0.38700
N1771       N  0.50277829  0.81743649  0.35237819    -0.38100
N1772       N  0.36373976  0.93164841  0.29935922    -0.38100
C1773       C  0.33895120  0.66548232  0.41913728    -0.04800
C1774       C  0.31400635  0.64424444  0.41193850    -0.01900
C1775       C  0.30330556  0.61693421  0.42303008     0.03100
C1776       C  0.31742815  0.61052966  0.44178335    -0.04800
C1777       C  0.34124398  0.63318674  0.44932570    -0.01900
C1778       C  0.35207021  0.66031777  0.43797109     0.03100
C1779       C  0.29898405  0.65084173  0.39303167     0.37700
C1780       C  0.35381146  0.62970963  0.46902023     0.37700
C1781       C  0.37672782  0.68316064  0.44566480     0.36100
C1782       C  0.27765461  0.59579241  0.41468553     0.36100
N1783       N  0.39617976  0.70165603  0.45174619    -0.38700
N1784       N  0.25699450  0.57931122  0.40794039    -0.38700
N1785       N  0.36377967  0.62727853  0.48476900    -0.38100
N1786       N  0.28696179  0.65611380  0.37799822    -0.38100
C1787       C  0.34522807  0.83896399  0.42252225    -0.04800
C1788       C  0.32779822  0.86513862  0.41321530    -0.01900
C1789       C  0.31847564  0.89341296  0.42367929     0.03100
C1790       C  0.32340681  0.89452797  0.44404039    -0.04800
C1791       C  0.33886806  0.86725902  0.45354880    -0.01900
C1792       C  0.35108046  0.84026535  0.44270998     0.03100
C1793       C  0.31941050  0.86292855  0.39272914     0.37700
C1794       C  0.34021607  0.86576453  0.47451345     0.37700
C1795       C  0.36996415  0.81399461  0.45226050     0.36100
C1796       C  0.30482819  0.92170098  0.41315044     0.36100
N1797       N  0.38510178  0.79294591  0.45974867    -0.38700
N1798       N  0.29419542  0.94418755  0.40459607    -0.38700
N1799       N  0.34062406  0.86402064  0.49125080    -0.38100
N1800       N  0.31275882  0.86098234  0.37642323    -0.38100
N1801       N  0.88602358  0.30362018  0.37919911    -0.36100
N1802       N  0.85999062  0.25226901  0.40422112    -0.56600
N1803       N  0.87755062  0.20434049  0.37495356    -0.36000
N1804       N  0.90489684  0.25639275  0.35034501    -0.56600
C1805       C  0.88270641  0.31947952  0.39625627     0.27500
C1806       C  0.90614704  0.32237981  0.36795726     0.27500
C1807       C  0.87195384  0.18460998  0.39053306     0.27500
C1808       C  0.89537291  0.18636357  0.36214505     0.27500
C1809       C  0.84640546  0.27899594  0.41278726     0.36100
C1810       C  0.84328633  0.22574979  0.41100562     0.36200
C1811       C  0.91046305  0.28444758  0.34002524     0.36100
C1812       C  0.90679590  0.23077299  0.33786980     0.36200
C1813       C  0.90149986  0.34827117  0.39602946    -0.21300
C1814       C  0.91615927  0.35021213  0.37809600    -0.21300
C1815       C  0.88626083  0.15377578  0.38757376    -0.21300
C1816       C  0.90102986  0.15485228  0.36966521    -0.21300
C1817       C  0.82082352  0.26945919  0.42509017    -0.22400
C1818       C  0.81906197  0.23550052  0.42409200    -0.22400
C1819       C  0.91627059  0.27661310  0.32082598    -0.22400
C1820       C  0.91408619  0.24256564  0.31947401    -0.22400
C1821       C  0.85890059  0.31136742  0.41055133    -0.17700
C1822       C  0.91285528  0.31652186  0.34821024    -0.17700
C1823       C  0.90495782  0.19688980  0.34338615    -0.17700
C1824       C  0.85179294  0.19285753  0.40657309    -0.17700
H1825       H  0.90312722  0.36673154  0.40729155     0.15200
H1826       H  0.93160432  0.37032449  0.37292916     0.15200
H1827       H  0.88564024  0.13252599  0.39718917     0.15200
H1828       H  0.91413526  0.13453965  0.36287883     0.15200
H1829       H  0.80559528  0.28519285  0.43414033     0.13500
H1830       H  0.80218604  0.21977694  0.43216421     0.13500
H1831       H  0.92220930  0.29355554  0.30915067     0.13500
H1832       H  0.91795359  0.22810280  0.30653231     0.13500
H1833       H  0.87106392  0.28422477  0.37442440     0.26700
H1834       H  0.86647920  0.22726851  0.37222669     0.26700
N1835       N  0.62929007  0.20069650  0.38144927    -0.36100
N1836       N  0.62459076  0.25304518  0.40987668    -0.56600
N1837       N  0.62079978  0.30012898  0.37826467    -0.36000
N1838       N  0.62541362  0.24678877  0.34893249    -0.56600
C1839       C  0.64102547  0.18481187  0.39740482     0.27500
C1840       C  0.63690724  0.18152759  0.36607517     0.27500
C1841       C  0.61466736  0.32025211  0.39351803     0.27500
C1842       C  0.61259588  0.31724542  0.36194347     0.27500
C1843       C  0.62871054  0.22749211  0.42232271     0.36100
C1844       C  0.62415623  0.28068099  0.42070199     0.36200
C1845       C  0.61362200  0.21837450  0.34109166     0.36100
C1846       C  0.61148143  0.27209857  0.33873913     0.36200
C1847       C  0.65674409  0.15555666  0.39201833    -0.21300
C1848       C  0.65433245  0.15362816  0.37221125    -0.21300
C1849       C  0.60171610  0.35007647  0.38691419    -0.21300
C1850       C  0.59919705  0.34774344  0.36709734    -0.21300
C1851       C  0.62955125  0.23882310  0.44124499    -0.22400
C1852       C  0.62713980  0.27268025  0.44018905    -0.22400
C1853       C  0.59124937  0.22548430  0.32623082    -0.22400
C1854       C  0.58889586  0.25955063  0.32525353    -0.22400
C1855       C  0.63636151  0.19485430  0.41678593    -0.17700
C1856       C  0.62373809  0.18634314  0.34726757    -0.17700
C1857       C  0.61748308  0.30619012  0.34256609    -0.17700
C1858       C  0.62182083  0.31311275  0.41321280    -0.17700
H1859       H  0.66818271  0.13707103  0.40139860     0.15200
H1860       H  0.66302730  0.13330230  0.36340620     0.15200
H1861       H  0.59422986  0.37111843  0.39549847     0.15200
H1862       H  0.58890483  0.36664730  0.35757224     0.15200
H1863       H  0.63337326  0.22439588  0.45435246     0.13500
H1864       H  0.62779101  0.28949527  0.45233103     0.13500
H1865       H  0.57728456  0.20800058  0.31754292     0.13500
H1866       H  0.57210644  0.27348878  0.31584861     0.13500
H1867       H  0.61298198  0.22090487  0.38120447     0.26700
H1868       H  0.63379341  0.27778167  0.37875697     0.26700
N1869       N  0.80563496  0.46349353  0.47435721    -0.05600
N1870       N  0.82570609  0.43825047  0.47032231    -0.57700
N1871       N  0.77811570  0.03938350  0.46167690    -0.05200
N1872       N  0.77821037  0.06404685  0.44923020    -0.59800
N1873       N  0.80452255  0.04056291  0.47315526    -0.04800
N1874       N  0.82327090  0.06640634  0.46845564    -0.57700
N1875       N  0.77962656  0.46369489  0.46247394    -0.04500
N1876       N  0.78138102  0.43892813  0.45026809    -0.60200
C1877       C  0.81011854  0.42317865  0.45518550     0.96600
C1878       C  0.80641608  0.08088426  0.45335011     0.96400
N1879       N  0.67863597  0.03919497  0.47929266    -0.05800
N1880       N  0.65926787  0.06577731  0.47793438    -0.58300
N1881       N  0.70169615  0.46327448  0.46528782    -0.03900
N1882       N  0.69680203  0.43921909  0.45288166    -0.59500
N1883       N  0.67940882  0.46227568  0.47919799    -0.05800
N1884       N  0.65878058  0.43695168  0.47645897    -0.58500
N1885       N  0.70068474  0.03890931  0.46522831    -0.03500
N1886       N  0.69684380  0.06505132  0.45398723    -0.59600
Mn1887     Mn  0.74003191  0.00126534  0.46321069     1.18400
C1888       C  0.67101341  0.08152601  0.46201561     0.98700
C1889       C  0.67023871  0.42268145  0.45994325     0.99400
N1890       N  0.81171902  0.04249160  0.51893925    -0.05800
N1891       N  0.83180453  0.06839455  0.52091187    -0.62100
N1892       N  0.79054992  0.46692236  0.53429690    -0.04600
N1893       N  0.79596451  0.44410039  0.54751529    -0.62800
N1894       N  0.81309318  0.46537313  0.52058789    -0.05300
N1895       N  0.83445720  0.44083311  0.52445821    -0.62400
N1896       N  0.78941499  0.04216693  0.53286913    -0.04200
N1897       N  0.79391258  0.06737416  0.54456507    -0.63100
Mn1898     Mn  0.81047219  0.00285777  0.49662587     1.10700
C1899       C  0.82016613  0.08387913  0.53698063     0.99900
C1900       C  0.82336773  0.42773515  0.54152417     1.00000
N1901       N  0.68734023  0.46331589  0.52482331    -0.05300
N1902       N  0.66954608  0.43635640  0.52806356    -0.60700
N1903       N  0.71159890  0.04039497  0.53589182    -0.04600
N1904       N  0.70972270  0.06436722  0.54848215    -0.57400
N1905       N  0.68470990  0.03978508  0.52479472    -0.05900
N1906       N  0.66359521  0.06358576  0.53002465    -0.60300
N1907       N  0.71302800  0.46471316  0.53687627    -0.04900
N1908       N  0.71324710  0.43888751  0.54857141    -0.57400
Mn1909     Mn  0.68090352  0.00105260  0.50210978     1.20200
Mn1910     Mn  0.75111124  0.00364097  0.53536902     1.10100
Cl1911     Cl  0.74569210  0.00209815  0.49932691    -0.85400
C1912       C  0.68612794  0.42139218  0.54292830     0.96900
C1913       C  0.67969532  0.07860986  0.54506090     0.96700
N1914       N  0.88498421  0.20101658  0.61772832    -0.36100
N1915       N  0.87882157  0.25212989  0.58795864    -0.56600
N1916       N  0.88715745  0.30127573  0.61844778    -0.36000
N1917       N  0.89568078  0.25072465  0.64751213    -0.56600
C1918       C  0.88567288  0.18253348  0.60141083     0.27500
C1919       C  0.89676908  0.18190114  0.63252041     0.27500
C1920       C  0.88900605  0.32001787  0.60222025     0.27500
C1921       C  0.89924558  0.31970109  0.63322758     0.27500
C1922       C  0.86829057  0.22591622  0.57752507     0.36100
C1923       C  0.86837617  0.27943426  0.57817670     0.36200
C1924       C  0.89322803  0.22366488  0.65895180     0.36100
C1925       C  0.89518453  0.27727557  0.65931829     0.36200
C1926       C  0.89769791  0.15116852  0.60590251    -0.21300
C1927       C  0.90530491  0.15095482  0.62540182    -0.21300
C1928       C  0.90221235  0.35070935  0.60665374    -0.21300
C1929       C  0.90855125  0.35060905  0.62620076    -0.21300
C1930       C  0.85241900  0.23667364  0.56064438    -0.22400
C1931       C  0.85211086  0.27062382  0.56118699    -0.22400
C1932       C  0.89075035  0.23314529  0.67819029    -0.22400
C1933       C  0.89257644  0.26711374  0.67843400    -0.22400
C1934       C  0.87286849  0.19239464  0.58301701    -0.17700
C1935       C  0.89753109  0.19072177  0.65246850    -0.17700
C1936       C  0.90020836  0.31018242  0.65304330    -0.17700
C1937       C  0.87412208  0.31220310  0.58423426    -0.17700
H1938       H  0.90047730  0.13042166  0.59621400     0.15200
H1939       H  0.91506830  0.12996408  0.63350093     0.15200
H1940       H  0.90562946  0.37149229  0.59690374     0.15200
H1941       H  0.91797081  0.37147111  0.63430132     0.15200
H1942       H  0.84168744  0.22166717  0.54925625     0.13500
H1943       H  0.84121196  0.28691538  0.55031322     0.13500
H1944       H  0.88921811  0.21719429  0.69080568     0.13500
H1945       H  0.89254439  0.28246817  0.69122040     0.13500
H1946       H  0.87305809  0.22375227  0.61908376     0.26700
H1947       H  0.87390223  0.27931831  0.61969513     0.26700
N1948       N  0.64754325  0.30321673  0.62671721    -0.36100
N1949       N  0.63582657  0.25483554  0.65697947    -0.56600
N1950       N  0.63775500  0.20279444  0.62807448    -0.36000
N1951       N  0.64701072  0.25084814  0.59734909    -0.56600
C1952       C  0.63746821  0.32344583  0.64120300     0.27500
C1953       C  0.64721822  0.32135527  0.61015556     0.27500
C1954       C  0.62703156  0.18526767  0.64358630     0.27500
C1955       C  0.63284637  0.18368440  0.61223552     0.27500
C1956       C  0.63711258  0.28207797  0.66816439     0.36100
C1957       C  0.63360239  0.22866755  0.66911810     0.36200
C1958       C  0.65793948  0.27619939  0.58630989     0.36100
C1959       C  0.65212288  0.22305310  0.58696842     0.36200
C1960       C  0.63140646  0.35485654  0.63374498    -0.21300
C1961       C  0.63820266  0.35372093  0.61433120    -0.21300
C1962       C  0.61611916  0.15436284  0.63745451    -0.21300
C1963       C  0.61940109  0.15358075  0.61773868    -0.21300
C1964       C  0.63634349  0.27317034  0.68757590    -0.22400
C1965       C  0.63383688  0.23931861  0.68818161    -0.22400
C1966       C  0.66910746  0.26451226  0.56861713    -0.22400
C1967       C  0.66580026  0.23076741  0.56914180    -0.22400
C1968       C  0.63428908  0.31482879  0.66107621    -0.17700
C1969       C  0.65607128  0.30990524  0.59148792    -0.17700
C1970       C  0.64387124  0.19088730  0.59325472    -0.17700
C1971       C  0.62692408  0.19597945  0.66319293    -0.17700
H1972       H  0.62320004  0.37661935  0.64146032     0.15200
H1973       H  0.63635124  0.37457004  0.60448514     0.15200
H1974       H  0.60700890  0.13406386  0.64620795     0.15200
H1975       H  0.61347120  0.13277988  0.60853242     0.15200
H1976       H  0.63598357  0.28946674  0.69995959     0.13500
H1977       H  0.63113173  0.22444193  0.70115988     0.13500
H1978       H  0.67861485  0.27873575  0.55653355     0.13500
H1979       H  0.67245330  0.21393193  0.55764998     0.13500
H1980       H  0.65708503  0.27950187  0.62815940     0.26700
H1981       H  0.65116348  0.22458890  0.62856077     0.26700
N1982       N  0.98054212  0.43947138  0.27267187    -0.05600
N1983       N  0.97901150  0.41519690  0.28536082    -0.57700
N1984       N  0.94953860  0.46961469  0.23260633    -0.05200
N1985       N  0.92289867  0.46736607  0.22130031    -0.59800
N1986       N  0.97163344  0.44645194  0.22849277    -0.04800
N1987       N  0.95949778  0.42741557  0.21440658    -0.57700
N1988       N  0.95929613  0.46338657  0.27690366    -0.04500
N1989       N  0.94195445  0.45473555  0.29256114    -0.60200
C1990       C  0.95521033  0.42465805  0.29782950     0.96600
C1991       C  0.92905920  0.44123505  0.20981642     0.96400
N1992       N  0.97980490  0.06577917  0.22996452    -0.05800
N1993       N  0.97147244  0.08686902  0.21586103    -0.58300
N1994       N  0.96207158  0.04727003  0.27722611    -0.03900
N1995       N  0.94163935  0.05918424  0.29070469    -0.59500
N1996       N  0.98608845  0.06880070  0.27391560    -0.05800
N1997       N  0.98320409  0.09462876  0.28521903    -0.58500
N1998       N  0.95485037  0.04511763  0.23311996    -0.03500
N1999       N  0.92977469  0.05104131  0.22104226    -0.59600
Mn2000     Mn  0.95559993  0.50627648  0.25571967     1.18400
C2001       C  0.94026143  0.07694792  0.21037168     0.98700
C2002       C  0.95577930  0.08864185  0.29585097     0.99400
N2003       N  0.55600738  0.44231466  0.22643043    -0.05800
N2004       N  0.56339423  0.42191368  0.21203640    -0.62100
N2005       N  0.58013703  0.45597598  0.27342152    -0.04600
N2006       N  0.60300073  0.44299037  0.28539931    -0.62800
N2007       N  0.55608226  0.43436165  0.27032388    -0.05300
N2008       N  0.56139615  0.40716824  0.28044711    -0.62400
N2009       N  0.58118031  0.46280007  0.22941581    -0.04200
N2010       N  0.60533996  0.45753290  0.21690122    -0.63100
Mn2011     Mn  0.51579619  0.44014942  0.24874060     1.10700
C2012       C  0.59400053  0.43239025  0.20598614     0.99900
C2013       C  0.59059686  0.41252262  0.28981028     1.00000
N2014       N  0.56213569  0.06388289  0.27310607    -0.05300
N2015       N  0.56784920  0.08800926  0.28534756    -0.60700
N2016       N  0.58594364  0.03771636  0.23156990    -0.04600
N2017       N  0.61162368  0.04130768  0.22006022    -0.57400
N2018       N  0.56394846  0.06173609  0.22903055    -0.05900
N2019       N  0.57529854  0.08293452  0.21579941    -0.60300
N2020       N  0.58381876  0.03945221  0.27560531    -0.04900
N2021       N  0.60557316  0.04742561  0.28957183    -0.57400
Mn2022     Mn  0.52296196  0.06559825  0.25082293     1.20200
Mn2023     Mn  0.58335630  0.49891490  0.25322067     1.10100
Cl2024     Cl  0.51940456  0.50274268  0.25214470    -0.85400
C2025       C  0.59468200  0.07771961  0.29561120     0.96900
C2026       C  0.60491125  0.06914809  0.21007121     0.96700
N2027       N  0.97384154  0.18459718  0.97728226    -0.05600
N2028       N  0.94772085  0.16474444  0.97547809    -0.57700
N2029       N  0.55020680  0.20810368  0.96322983    -0.05200
N2030       N  0.57335297  0.20206546  0.95015480    -0.59800
N2031       N  0.55130149  0.18545817  0.97694515    -0.04800
N2032       N  0.57527495  0.16374096  0.97344154    -0.57700
N2033       N  0.97301909  0.20759965  0.96371519    -0.04500
N2034       N  0.94650003  0.20378272  0.95239904    -0.60200
C2035       C  0.93079607  0.17701062  0.95988155     0.96600
C2036       C  0.58907411  0.17427531  0.95662659     0.96400
N2037       N  0.54842259  0.30994100  0.97603996    -0.05800
N2038       N  0.57428860  0.32988203  0.97368381    -0.58300
N2039       N  0.97211805  0.28525327  0.96234962    -0.03900
N2040       N  0.94871195  0.28972755  0.94902839    -0.59500
N2041       N  0.97118843  0.30922625  0.97510621    -0.05800
N2042       N  0.94712935  0.33059521  0.97045693    -0.58500
N2043       N  0.54902008  0.28608123  0.96314212    -0.03500
N2044       N  0.57518907  0.28928441  0.95177364    -0.59600
Mn2045     Mn  0.51112017  0.24678543  0.96251529     1.18400
C2046       C  0.59075582  0.31659101  0.95850617     0.98700
C2047       C  0.93310617  0.31811272  0.95405515     0.99400
N2048       N  0.55255224  0.18702943  0.02300052    -0.05800
N2049       N  0.57819134  0.16709827  0.02716495    -0.62100
N2050       N  0.97408215  0.20945395  0.03516396    -0.04600
N2051       N  0.94802027  0.20589014  0.04657561    -0.62800
N2052       N  0.97515994  0.18545311  0.02240983    -0.05300
N2053       N  0.94990914  0.16487283  0.02489582    -0.62400
N2054       N  0.55073274  0.21071816  0.03590484    -0.04200
N2055       N  0.57456943  0.20730404  0.04901305    -0.63100
Mn2056     Mn  0.51351527  0.18439664  0.99991297     1.10700
C2057       C  0.59190812  0.18028395  0.04350434     0.99900
C2058       C  0.93327163  0.17809878  0.03996622     1.00000
N2059       N  0.97069342  0.30988491  0.02135560    -0.05300
N2060       N  0.94500738  0.32990110  0.02474517    -0.60700
N2061       N  0.54941769  0.28816869  0.03474693    -0.04600
N2062       N  0.57537125  0.29214008  0.04645138    -0.57400
N2063       N  0.54846267  0.31169602  0.02148870    -0.05900
N2064       N  0.57378819  0.33237047  0.02399790    -0.60300
N2065       N  0.97248322  0.28679418  0.03481603    -0.04900
N2066       N  0.94848679  0.29069253  0.04755367    -0.57400
Mn2067     Mn  0.50943164  0.31154724  0.99847552     1.20200
Mn2068     Mn  0.51167452  0.24880082  0.03565941     1.10100
Cl2069     Cl  0.51147216  0.24790600  0.99912422    -0.85400
C2070       C  0.93119252  0.31746419  0.04120300     0.96900
C2071       C  0.59032810  0.31971207  0.03960857     0.96700
N2072       N  0.70522075  0.38495843  0.87823943    -0.36100
N2073       N  0.75295029  0.40051725  0.84773805    -0.56600
N2074       N  0.80691940  0.38976263  0.87548704    -0.36000
N2075       N  0.75982813  0.37423237  0.90604674    -0.56600
C2076       C  0.68407929  0.38652616  0.86276046     0.27500
C2077       C  0.68783675  0.37159425  0.89314713     0.27500
C2078       C  0.82413605  0.40379334  0.86076193     0.27500
C2079       C  0.82769948  0.38915416  0.89110025     0.27500
C2080       C  0.72457556  0.40382673  0.83706123     0.36100
C2081       C  0.77888699  0.40528691  0.83556070     0.36200
C2082       C  0.73428532  0.36571311  0.91774580     0.36100
C2083       C  0.78841693  0.36795704  0.91606160     0.36200
C2084       C  0.65286212  0.37460063  0.86800941    -0.21300
C2085       C  0.65523956  0.36510380  0.88706667    -0.21300
C2086       C  0.85594566  0.41252083  0.86721899    -0.21300
C2087       C  0.85826049  0.40303173  0.88630794    -0.21300
C2088       C  0.73253969  0.41127545  0.81801167    -0.22400
C2089       C  0.76687542  0.41116293  0.81694288    -0.22400
C2090       C  0.74674994  0.35502747  0.93555502    -0.22400
C2091       C  0.78105021  0.35573006  0.93432363    -0.22400
C2092       C  0.69165694  0.39833515  0.84390012    -0.17700
C2093       C  0.70008742  0.36468572  0.91214729    -0.17700
C2094       C  0.82105699  0.37390148  0.90912810    -0.17700
C2095       C  0.81306620  0.40688750  0.84127374    -0.17700
H2096       H  0.63070652  0.37238597  0.85894103     0.15200
H2097       H  0.63518793  0.35420506  0.89540754     0.15200
H2098       H  0.87573553  0.42396795  0.85891549     0.15200
H2099       H  0.88010477  0.40567724  0.89558486     0.15200
H2100       H  0.71550053  0.41554969  0.80596302     0.13500
H2101       H  0.78121763  0.41582024  0.80397992     0.13500
H2102       H  0.73269619  0.34640454  0.94793303     0.13500
H2103       H  0.79845864  0.34832854  0.94566984     0.13500
H2104       H  0.72913266  0.39485157  0.87899260     0.26700
H2105       H  0.78436403  0.37713514  0.87425433     0.26700
N2106       N  0.76017187  0.10730867  0.91230937    -0.36100
N2107       N  0.70922889  0.09109923  0.88305784    -0.56600
N2108       N  0.75977757  0.08632770  0.85333295    -0.36000
N2109       N  0.81069181  0.10580085  0.88174542    -0.56600
C2110       C  0.73189151  0.11585047  0.92184026     0.27500
C2111       C  0.78624929  0.12119568  0.92188619     0.27500
C2112       C  0.73165632  0.08444477  0.84218229     0.27500
C2113       C  0.78625370  0.09014939  0.84137378     0.27500
C2114       C  0.69020724  0.09122743  0.89911997     0.36100
C2115       C  0.69004564  0.07832175  0.86877321     0.36200
C2116       C  0.83096241  0.11266142  0.89705037     0.36100
C2117       C  0.83099833  0.10095521  0.86635439     0.36200
C2118       C  0.74025367  0.13388824  0.93817938    -0.21300
C2119       C  0.77455924  0.13682082  0.93837942    -0.21300
C2120       C  0.74051280  0.08682480  0.82284035    -0.21300
C2121       C  0.77489920  0.08955513  0.82231454    -0.21300
C2122       C  0.65889695  0.07806675  0.89515258    -0.22400
C2123       C  0.65894921  0.06937969  0.87597766    -0.22400
C2124       C  0.86415285  0.11298096  0.89120961    -0.22400
C2125       C  0.86417776  0.10560122  0.87186717    -0.22400
C2126       C  0.69864120  0.10811831  0.91623384    -0.17700
C2127       C  0.82017672  0.12128460  0.91590835    -0.17700
C2128       C  0.82041188  0.09327649  0.84717273    -0.17700
C2129       C  0.69847968  0.07884127  0.84891332    -0.17700
H2130       H  0.72337898  0.14409448  0.94881996     0.15200
H2131       H  0.78905065  0.15002456  0.94914351     0.15200
H2132       H  0.72404723  0.08589783  0.81031351     0.15200
H2133       H  0.78964004  0.09111449  0.80926681     0.15200
H2134       H  0.63788048  0.07600151  0.90491019     0.13500
H2135       H  0.63790840  0.05920085  0.86802772     0.13500
H2136       H  0.88614530  0.11847401  0.89989101     0.13500
H2137       H  0.88620846  0.10428580  0.86284226     0.13500
H2138       H  0.76180432  0.09171499  0.90047334     0.26700
H2139       H  0.76136933  0.08189807  0.86810179     0.26700
N2140       N  0.57208626  0.46570574  0.72239273    -0.05600
N2141       N  0.59446518  0.44197295  0.71981617    -0.57700
N2142       N  0.54691326  0.04154932  0.71004518    -0.05200
N2143       N  0.55007312  0.06734814  0.69858298    -0.59800
N2144       N  0.56936479  0.04213174  0.72404273    -0.04800
N2145       N  0.58826181  0.06886811  0.72233579    -0.57700
N2146       N  0.54947179  0.46574457  0.70843713    -0.04500
N2147       N  0.55590110  0.44180946  0.69605194    -0.60200
C2148       C  0.58411641  0.42734209  0.70329726     0.96600
C2149       C  0.57578456  0.08449214  0.70628618     0.96400
N2150       N  0.94470218  0.04050548  0.72057112    -0.05800
N2151       N  0.92357945  0.06539422  0.71747316    -0.58300
N2152       N  0.97064739  0.46558716  0.70620485    -0.03900
N2153       N  0.96863789  0.44183227  0.69336050    -0.59500
N2154       N  0.94601119  0.46359413  0.71866795    -0.05800
N2155       N  0.92690086  0.43774157  0.71448862    -0.58500
N2156       N  0.96919795  0.04127647  0.70793596    -0.03500
N2157       N  0.96555420  0.06682199  0.69613102    -0.59600
Mn2158     Mn  0.50905792  0.50343489  0.70764195     1.18400
C2159       C  0.93711044  0.08160790  0.70221194     0.98700
C2160       C  0.94142803  0.42428327  0.69853974     0.99400
N2161       N  0.56833087  0.03667864  0.76962710    -0.05800
N2162       N  0.59457802  0.05351538  0.77563857    -0.62100
N2163       N  0.54405756  0.45964851  0.78052575    -0.04600
N2164       N  0.55221447  0.43866145  0.79453645    -0.62800
N2165       N  0.56843688  0.46149763  0.76780842    -0.05300
N2166       N  0.59327524  0.44153521  0.77295776    -0.62400
N2167       N  0.54581638  0.03436531  0.78340248    -0.04200
N2168       N  0.55718138  0.04921102  0.79920843    -0.63100
Mn2169     Mn  0.57020856  0.50166649  0.74587644     1.10700
C2170       C  0.58770760  0.06122129  0.79415044     0.99900
C2171       C  0.58308918  0.42742411  0.78973523     1.00000
N2172       N  0.94126860  0.46181471  0.76442818    -0.05300
N2173       N  0.91441973  0.44421935  0.76840546    -0.60700
N2174       N  0.96469479  0.03565160  0.78073167    -0.04600
N2175       N  0.95515086  0.05341415  0.79569480    -0.57400
N2176       N  0.94159742  0.03664247  0.76693894    -0.05900
N2177       N  0.91602070  0.05514870  0.77252753    -0.60300
N2178       N  0.96276537  0.46085171  0.77901969    -0.04900
N2179       N  0.95027082  0.44270527  0.79324686    -0.57400
Mn2180     Mn  0.94255265  0.50069051  0.74248342     1.20200
Mn2181     Mn  0.50429728  0.49756115  0.78122584     1.10100
Cl2182     Cl  0.50647099  0.50082772  0.74439012    -0.85400
C2183       C  0.92010833  0.43226538  0.78641634     0.96900
C2184       C  0.92470238  0.06560502  0.79052370     0.96700
N2185       N  0.76534680  0.13063887  0.09465542    -0.36100
N2186       N  0.82031687  0.12379810  0.12248919    -0.56600
N2187       N  0.77264936  0.12040096  0.15407458    -0.36000
N2188       N  0.71757273  0.12454958  0.12550514    -0.56600
C2189       C  0.79154594  0.12885816  0.08246334     0.27500
C2190       C  0.73701028  0.12820603  0.08389380     0.27500
C2191       C  0.80104264  0.10934002  0.16306444     0.27500
C2192       C  0.74623281  0.11098842  0.16499087     0.27500
C2193       C  0.83706038  0.13582647  0.10706585     0.36100
C2194       C  0.84119333  0.12688827  0.13789127     0.36200
C2195       C  0.69593064  0.13158737  0.11082577     0.36100
C2196       C  0.69975554  0.12649222  0.14201529     0.36200
C2197       C  0.77979887  0.12480320  0.06364977    -0.21300
C2198       C  0.74529410  0.12473798  0.06453586    -0.21300
C2199       C  0.79258661  0.09335903  0.18014743    -0.21300
C2200       C  0.75806669  0.09459321  0.18143814    -0.21300
C2201       C  0.86864571  0.14659852  0.11276351    -0.22400
C2202       C  0.87135982  0.14060004  0.13227293    -0.22400
C2203       C  0.66410512  0.13731064  0.11802611    -0.22400
C2204       C  0.66648536  0.13401919  0.13772333    -0.22400
C2205       C  0.82528133  0.13504221  0.08767798    -0.17700
C2206       C  0.70414816  0.13267411  0.09091296    -0.17700
C2207       C  0.71178222  0.11701332  0.16057196    -0.17700
C2208       C  0.83435480  0.11491499  0.15664778    -0.17700
H2209       H  0.79450008  0.12361211  0.05055523     0.15200
H2210       H  0.72830666  0.12331537  0.05226014     0.15200
H2211       H  0.80952151  0.08212272  0.19064221     0.15200
H2212       H  0.74336049  0.08431350  0.19311435     0.15200
H2213       H  0.88795679  0.15726728  0.10376851     0.13500
H2214       H  0.89304557  0.14566000  0.14130426     0.13500
H2215       H  0.64137460  0.14287455  0.10993457     0.13500
H2216       H  0.64577168  0.13620765  0.14766290     0.13500
H2217       H  0.76678348  0.13826042  0.10893818     0.26700
H2218       H  0.77139448  0.13594117  0.14203081     0.26700
N2219       N  0.76188508  0.37006278  0.09265907    -0.36100
N2220       N  0.81332460  0.38306356  0.12209504    -0.56600
N2221       N  0.76192383  0.38568328  0.15171652    -0.36000
N2222       N  0.71063661  0.37490796  0.12143743    -0.56600
C2223       C  0.78893287  0.37363422  0.08124140     0.27500
C2224       C  0.73441903  0.37014278  0.08100881     0.27500
C2225       C  0.78855167  0.39819288  0.16163977     0.27500
C2226       C  0.73350281  0.39529834  0.16089723     0.27500
C2227       C  0.83317410  0.37443130  0.10711149     0.36100
C2228       C  0.83344091  0.38431243  0.13799480     0.36200
C2229       C  0.69216438  0.36214138  0.10678859     0.36100
C2230       C  0.69213678  0.37168270  0.13761038     0.36200
C2231       C  0.77865509  0.37604268  0.06203280    -0.21300
C2232       C  0.74414824  0.37423820  0.06190404    -0.21300
C2233       C  0.77683154  0.41492027  0.17774404    -0.21300
C2234       C  0.74223776  0.41354985  0.17710149    -0.21300
C2235       C  0.86606837  0.37078509  0.11346720    -0.22400
C2236       C  0.86631123  0.37740031  0.13291370    -0.22400
C2237       C  0.66182754  0.35058103  0.11371609    -0.22400
C2238       C  0.66178727  0.35669237  0.13325575    -0.22400
C2239       C  0.82255670  0.37064988  0.08758052    -0.17700
C2240       C  0.70140936  0.36293237  0.08705708    -0.17700
C2241       C  0.70004083  0.38673469  0.15547242    -0.17700
C2242       C  0.82308060  0.39448985  0.15664612    -0.17700
H2243       H  0.79440118  0.37798081  0.04938354     0.15200
H2244       H  0.72817889  0.37442863  0.04914126     0.15200
H2245       H  0.79156394  0.42723481  0.18875852     0.15200
H2246       H  0.72546482  0.42452698  0.18752495     0.15200
H2247       H  0.88782794  0.36461133  0.10491379     0.13500
H2248       H  0.88838340  0.37738493  0.14212672     0.13500
H2249       H  0.64156352  0.33954262  0.10549985     0.13500
H2250       H  0.64135333  0.35165075  0.14306115     0.13500
H2251       H  0.76273219  0.36283215  0.10709725     0.26700
H2252       H  0.76315374  0.36922688  0.14023093     0.26700
C2253       C  0.61555967  0.06535466  0.80845826    -0.04800
C2254       C  0.61625991  0.09303745  0.82075069    -0.01900
C2255       C  0.64406102  0.09827353  0.83318714     0.03100
C2256       C  0.67038841  0.07459478  0.83444656    -0.04800
C2257       C  0.66911821  0.04631786  0.82257483    -0.01900
C2258       C  0.64250756  0.04227529  0.80920935     0.03100
C2259       C  0.58865158  0.11652775  0.82030391     0.37700
C2260       C  0.69518052  0.02119433  0.82412188     0.37700
C2261       C  0.64326801  0.01421529  0.79621425     0.36100
C2262       C  0.64569109  0.12825946  0.84460040     0.36100
N2263       N  0.64454910  0.99200654  0.78574789    -0.38700
N2264       N  0.64694362  0.15216846  0.85371335    -0.38700
N2265       N  0.71594278  0.00114616  0.82521523    -0.38100
N2266       N  0.56652968  0.13516946  0.82001945    -0.38100
C2267       C  0.84721683  0.08672991  0.83243642    -0.04800
C2268       C  0.86619273  0.05717080  0.83377857    -0.01900
C2269       C  0.89235211  0.05095536  0.82064706     0.03100
C2270       C  0.89880059  0.07347640  0.80530436    -0.04800
C2271       C  0.87968923  0.10290486  0.80384655    -0.01900
C2272       C  0.85465233  0.10996676  0.81767224     0.03100
C2273       C  0.85881333  0.03302172  0.84881649     0.37700
C2274       C  0.88625271  0.12621133  0.78828702     0.37700
C2275       C  0.83657065  0.14114780  0.81672381     0.36100
C2276       C  0.91215730  0.02093002  0.82290680     0.36100
N2277       N  0.82198523  0.16594503  0.81588611    -0.38700
N2278       N  0.92794429  0.99703267  0.82490975    -0.38700
N2279       N  0.89150908  0.14473328  0.77582912    -0.38100
N2280       N  0.85299693  0.01377364  0.86080333    -0.38100
C2281       C  0.66275695  0.40465831  0.83032279    -0.04800
C2282       C  0.65590478  0.38304744  0.81476866    -0.01900
C2283       C  0.62911541  0.38992348  0.80182542     0.03100
C2284       C  0.60832417  0.41778685  0.80471509    -0.04800
C2285       C  0.61433242  0.43858620  0.82082006    -0.01900
C2286       C  0.64178477  0.43235815  0.83332016     0.03100
C2287       C  0.67705015  0.35426374  0.81179341     0.37700
C2288       C  0.59320419  0.46726582  0.82424263     0.37700
C2289       C  0.64913708  0.45512449  0.84897963     0.36100
C2290       C  0.62291339  0.36831268  0.78549503     0.36100
N2291       N  0.65504562  0.47336995  0.86139681    -0.38700
N2292       N  0.61797908  0.35104566  0.77247308    -0.38700
N2293       N  0.57638347  0.49009455  0.82711242    -0.38100
N2294       N  0.69427147  0.33157780  0.80932929    -0.38100
C2295       C  0.89174621  0.42521607  0.79963134    -0.04800
C2296       C  0.86630096  0.44924261  0.80260029    -0.01900
C2297       C  0.84117984  0.44374932  0.81649399     0.03100
C2298       C  0.83930382  0.41296131  0.82620628    -0.04800
C2299       C  0.86354989  0.38819230  0.82232224    -0.01900
C2300       C  0.89015837  0.39467439  0.80950086     0.03100
C2301       C  0.86549328  0.47963845  0.79132023     0.37700
C2302       C  0.86126261  0.35602625  0.83166087     0.37700
C2303       C  0.91552817  0.36960324  0.80608243     0.36100
C2304       C  0.81759082  0.47004328  0.82098759     0.36100
N2305       N  0.93577649  0.34962011  0.80331192    -0.38700
N2306       N  0.79872598  0.49099073  0.82446173    -0.38700
N2307       N  0.85951126  0.33036917  0.83911647    -0.38100
N2308       N  0.86403881  0.50371982  0.78219229    -0.38100
C2309       C  0.62220458  0.16764017  0.05441800    -0.04800
C2310       C  0.64062775  0.18942667  0.06666235    -0.01900
C2311       C  0.66903773  0.17812698  0.07694537     0.03100
C2312       C  0.67754533  0.14433767  0.07704816    -0.04800
C2313       C  0.65897084  0.12211444  0.06556751    -0.01900
C2314       C  0.63220928  0.13384444  0.05369539     0.03100
C2315       C  0.62976817  0.22318200  0.07007397     0.37700
C2316       C  0.66669190  0.08704164  0.06661997     0.37700
C2317       C  0.61411575  0.11052315  0.04167637     0.36100
C2318       C  0.68883384  0.20120371  0.08835580     0.36100
N2319       N  0.59993788  0.09167079  0.03210327    -0.38700
N2320       N  0.70454838  0.21948607  0.09749519    -0.38700
N2321       N  0.67284036  0.05906792  0.06766511    -0.38100
N2322       N  0.62101826  0.24977370  0.07364375    -0.38100
C2323       C  0.90311292  0.16380902  0.04875016    -0.04800
C2324       C  0.90476743  0.13266817  0.05802913    -0.01900
C2325       C  0.87750828  0.12163682  0.06912560     0.03100
C2326       C  0.84976958  0.14284670  0.07213552    -0.04800
C2327       C  0.84758798  0.17337146  0.06209294    -0.01900
C2328       C  0.87365241  0.18307691  0.04973981     0.03100
C2329       C  0.93544791  0.11325409  0.05750243     0.37700
C2330       C  0.81971526  0.19578710  0.06543234     0.37700
C2331       C  0.87042446  0.21308667  0.03818699     0.36100
C2332       C  0.87880897  0.08933860  0.07842350     0.36100
N2333       N  0.86788242  0.23693845  0.02890707    -0.38700
N2334       N  0.87986851  0.06359624  0.08585336    -0.38700
N2335       N  0.79758768  0.21374729  0.06816801    -0.38100
N2336       N  0.96006255  0.09797131  0.05729276    -0.38100
C2337       C  0.62103797  0.33381381  0.04851651    -0.04800
C2338       C  0.62018152  0.36516448  0.05738392    -0.01900
C2339       C  0.64773447  0.37586328  0.06868487     0.03100
C2340       C  0.67531324  0.35443047  0.07214375    -0.04800
C2341       C  0.67681003  0.32379432  0.06243319    -0.01900
C2342       C  0.65030838  0.31417454  0.05006631     0.03100
C2343       C  0.59025517  0.38557213  0.05580908     0.37700
C2344       C  0.70493085  0.30154143  0.06582885     0.37700
C2345       C  0.65317801  0.28414542  0.03877630     0.36100
C2346       C  0.64754567  0.40870384  0.07701351     0.36100
N2347       N  0.65546118  0.26030238  0.02966966    -0.38700
N2348       N  0.64749558  0.43506604  0.08345886    -0.38700
N2349       N  0.72740314  0.28388155  0.06864465    -0.38100
N2350       N  0.56625899  0.40171340  0.05465081    -0.38100
C2351       C  0.90139150  0.33129657  0.05165046    -0.04800
C2352       C  0.88261506  0.31065949  0.06435813    -0.01900
C2353       C  0.85477730  0.32332975  0.07426507     0.03100
C2354       C  0.84752969  0.35737233  0.07361677    -0.04800
C2355       C  0.86594763  0.37831628  0.06131332    -0.01900
C2356       C  0.89207274  0.36520940  0.04984954     0.03100
C2357       C  0.89254051  0.27678529  0.06859162     0.37700
C2358       C  0.85837495  0.41344635  0.06082450     0.39300
C2359       C  0.91028496  0.38732730  0.03713868     0.36100
C2360       C  0.83385649  0.30137277  0.08572784     0.36100
N2361       N  0.92461243  0.40521677  0.02702323    -0.38700
N2362       N  0.81695297  0.28398938  0.09473725    -0.38700
N2363       N  0.85228620  0.44147229  0.06048818    -0.38100
N2364       N  0.90052445  0.25012061  0.07281940    -0.38100
C2365       C  0.67508380  0.35315966  0.92672057    -0.04800
C2366       C  0.67297168  0.31927528  0.93165737    -0.01900
C2367       C  0.64714044  0.30808166  0.94378113     0.03100
C2368       C  0.62166710  0.33011506  0.94973310    -0.04800
C2369       C  0.62458807  0.36426550  0.94554980    -0.01900
C2370       C  0.65164358  0.37580030  0.93436817     0.03100
C2371       C  0.69654542  0.29568382  0.92364092     0.37700
C2372       C  0.59887341  0.38734346  0.95168527     0.37700
C2373       C  0.65456351  0.41080523  0.92989798     0.36100
C2374       C  0.64725776  0.27400614  0.95057036     0.36100
N2375       N  0.65691811  0.43869110  0.92625863    -0.38700
N2376       N  0.64753632  0.24703198  0.95630684    -0.38700
N2377       N  0.57835724  0.40583298  0.95649205    -0.38100
N2378       N  0.71529939  0.27683262  0.91723969    -0.38100
C2379       C  0.90532176  0.33398271  0.94222311    -0.04800
C2380       C  0.88771315  0.36241566  0.94890387    -0.01900
C2381       C  0.86130500  0.37646076  0.93770732     0.03100
C2382       C  0.85040102  0.36098913  0.92056910    -0.04800
C2383       C  0.86742298  0.33274883  0.91389842    -0.01900
C2384       C  0.89565233  0.32034641  0.92400178     0.03100
C2385       C  0.89592910  0.37734184  0.96737672     0.37700
C2386       C  0.85530522  0.31589354  0.89666690     0.37700
C2387       C  0.91473975  0.29401850  0.91496471     0.36100
C2388       C  0.84510094  0.40683670  0.94380269     0.36100
N2389       N  0.92979180  0.27321376  0.90747748    -0.38700
N2390       N  0.83214972  0.43111530  0.94855315    -0.38700
N2391       N  0.84542064  0.30234706  0.88305715    -0.38100
N2392       N  0.90208169  0.38939313  0.98214720    -0.38100
C2393       C  0.61681910  0.15665093  0.94606907    -0.04800
C2394       C  0.62887558  0.12508456  0.95250804    -0.01900
C2395       C  0.65555426  0.10921901  0.94284457     0.03100
C2396       C  0.67056392  0.12441517  0.92677143    -0.04800
C2397       C  0.65885401  0.15544891  0.92017694    -0.01900
C2398       C  0.63183328  0.17124348  0.92941744     0.03100
C2399       C  0.61380582  0.10802748  0.96879528     0.37700
C2400       C  0.67524073  0.17142594  0.90388103     0.37700
C2401       C  0.61983123  0.20237058  0.92128198     0.36100
C2402       C  0.66775526  0.07714001  0.94940799     0.36100
N2403       N  0.61052814  0.22706361  0.91449775    -0.38700
N2404       N  0.67753121  0.05156648  0.95462954    -0.38700
N2405       N  0.68858898  0.18408793  0.89100111    -0.38100
N2406       N  0.60194652  0.09412315  0.98173978    -0.38100
C2407       C  0.84590394  0.13537797  0.92944362    -0.04800
C2408       C  0.84979262  0.16996385  0.93064214    -0.01900
C2409       C  0.87579767  0.18345598  0.94201205     0.03100
C2410       C  0.89969721  0.16247446  0.95123541    -0.04800
C2411       C  0.89447747  0.12777407  0.95099826    -0.01900
C2412       C  0.86737018  0.11438099  0.94032111     0.03100
C2413       C  0.82714507  0.19166788  0.91989822     0.37700
C2414       C  0.91740932  0.10557003  0.96111981     0.37700
C2415       C  0.86198813  0.07890395  0.94007058     0.36100
C2416       C  0.87684791  0.21896665  0.94489097     0.36100
N2417       N  0.85763536  0.05060761  0.93992106    -0.38700
N2418       N  0.87713346  0.24724036  0.94742669    -0.38700
N2419       N  0.93558473  0.08775532  0.96922730    -0.38100
N2420       N  0.80891556  0.20874763  0.91130662    -0.38100
C2421       C  0.85008501  0.40587801  0.17061034    -0.04800
C2422       C  0.85578169  0.43997809  0.17305949    -0.01900
C2423       C  0.88074574  0.45118721  0.18608384     0.03100
C2424       C  0.90323655  0.42859337  0.19545721    -0.04800
C2425       C  0.89865794  0.39429995  0.19207445    -0.01900
C2426       C  0.87145677  0.38306353  0.18039190     0.03100
C2427       C  0.83573273  0.46377884  0.16207237     0.37700
C2428       C  0.92106170  0.37030189  0.20107271     0.37700
C2429       C  0.86536167  0.34789969  0.17838930     0.36100
C2430       C  0.88185489  0.48624448  0.19019124     0.36100
N2431       N  0.86038929  0.31985224  0.17678027    -0.38700
N2432       N  0.88122894  0.01413424  0.19378267    -0.38700
N2433       N  0.93901431  0.35101847  0.20810773    -0.38100
N2434       N  0.81972199  0.48265437  0.15329570    -0.38100
C2435       C  0.67102124  0.39623621  0.16822165    -0.04800
C2436       C  0.66699943  0.38174735  0.18673546    -0.01900
C2437       C  0.64057390  0.39218839  0.19886551     0.03100
C2438       C  0.61633485  0.41520738  0.19204898    -0.04800
C2439       C  0.61846345  0.42715852  0.17286587    -0.01900
C2440       C  0.64642258  0.41901698  0.16135210     0.03100
C2441       C  0.69016230  0.35621562  0.19331614     0.37700
C2442       C  0.59256496  0.44911537  0.16525049     0.37700
C2443       C  0.65057589  0.43524898  0.14271702     0.36100
C2444       C  0.63913371  0.38020316  0.21865654     0.36100
N2445       N  0.65403412  0.44826291  0.12788976    -0.38700
N2446       N  0.63840254  0.37078034  0.23450579    -0.38700
N2447       N  0.57206404  0.46675452  0.15913568    -0.38100
N2448       N  0.70864340  0.33575125  0.19845955    -0.38100
C2449       C  0.91870425  0.09199025  0.19495271    -0.04800
C2450       C  0.89653542  0.11816830  0.19938699    -0.01900
C2451       C  0.86984231  0.12647962  0.18656655     0.03100
C2452       C  0.86381287  0.10733943  0.16982729    -0.04800
C2453       C  0.88697343  0.08202173  0.16503216    -0.01900
C2454       C  0.91494326  0.07533610  0.17718510     0.03100
C2455       C  0.90065885  0.13596906  0.21740664     0.37700
C2456       C  0.88139011  0.06187469  0.14799214     0.37700
C2457       C  0.93941319  0.05042773  0.17176629     0.36100
C2458       C  0.84874055  0.15493303  0.19044242     0.36100
N2459       N  0.95908188  0.03071488  0.16745515    -0.38700
N2460       N  0.83198119  0.17780013  0.19332444    -0.38700
N2461       N  0.87699543  0.04563677  0.13446065    -0.38100
N2462       N  0.90388466  0.15020611  0.23179434    -0.38100
C2463       C  0.68567440  0.10559421  0.17448674    -0.04800
C2464       C  0.66676163  0.12816436  0.18560043    -0.01900
C2465       C  0.63916631  0.11694654  0.19665320     0.03100
C2466       C  0.63025755  0.08309346  0.19648981    -0.04800
C2467       C  0.64954996  0.06080846  0.18523860    -0.01900
C2468       C  0.67691348  0.07196186  0.17438938     0.03100
C2469       C  0.67556210  0.16292299  0.18545344     0.37700
C2470       C  0.64215799  0.02580251  0.18499439     0.37700
C2471       C  0.69627550  0.04862600  0.16298010     0.36100
C2472       C  0.62132515  0.13990251  0.20893948     0.36100
N2473       N  0.71191816  0.03011902  0.15401331    -0.38700
N2474       N  0.60728035  0.15824898  0.21884292    -0.38700
N2475       N  0.63747723  0.99763667  0.18493661    -0.38100
N2476       N  0.68246979  0.19071001  0.18529527    -0.38100
C2477       C  0.61304588  0.17242651  0.67777082    -0.04800
C2478       C  0.57883274  0.16447462  0.67647294    -0.01900
C2479       C  0.56711378  0.13510840  0.68492567     0.03100
C2480       C  0.58818868  0.11627803  0.69769768    -0.04800
C2481       C  0.62152514  0.12733069  0.70109097    -0.01900
C2482       C  0.63420167  0.15457985  0.69053700     0.03100
C2483       C  0.55668786  0.18474126  0.66439584     0.37700
C2484       C  0.64387455  0.10944705  0.71415809     0.37700
C2485       C  0.66926456  0.16363986  0.69224073     0.36100
C2486       C  0.53480621  0.12307274  0.67827621     0.36100
N2487       N  0.69719045  0.17106407  0.69360503    -0.38700
N2488       N  0.50970327  0.11342470  0.67199627    -0.38700
N2489       N  0.66189563  0.09532887  0.72456324    -0.38100
N2490       N  0.53974528  0.20097998  0.65447089    -0.38100
C2491       C  0.62349668  0.34141460  0.67481449    -0.04800
C2492       C  0.59036964  0.34157415  0.68202384    -0.01900
C2493       C  0.57877257  0.36852903  0.69294880     0.03100
C2494       C  0.59907795  0.39664350  0.69541206    -0.04800
C2495       C  0.63298071  0.39554971  0.68961218    -0.01900
C2496       C  0.64531463  0.36769202  0.67958662     0.03100
C2497       C  0.56781632  0.31446270  0.67775588     0.37700
C2498       C  0.65491016  0.42330502  0.69351558     0.37700
C2499       C  0.68011515  0.36636133  0.67365112     0.36100
C2500       C  0.54657693  0.36678289  0.70254526     0.36100
N2501       N  0.70786836  0.36515050  0.66889616    -0.38700
N2502       N  0.52119759  0.36547222  0.71053389    -0.38700
N2503       N  0.67251156  0.44535760  0.69669864    -0.38100
N2504       N  0.54994082  0.29270680  0.67441326    -0.38100
C2505       C  0.90526115  0.16423849  0.66729636    -0.04800
C2506       C  0.93493780  0.16592157  0.67868166    -0.01900
C2507       C  0.94276679  0.14054231  0.69206665     0.03100
C2508       C  0.92307599  0.11172533  0.69279049    -0.04800
C2509       C  0.89263529  0.11051813  0.68224749    -0.01900
C2510       C  0.88333598  0.13708933  0.66987756     0.03100
C2511       C  0.95795887  0.19331209  0.67628889     0.37700
C2512       C  0.87150789  0.08149056  0.68358902     0.37700
C2513       C  0.85172340  0.13604904  0.65933265     0.36100
C2514       C  0.97076327  0.14423623  0.70545415     0.36100
N2515       N  0.82663358  0.13524046  0.65078786    -0.38700
N2516       N  0.49286335  0.14719286  0.71628258    -0.38700
N2517       N  0.85460701  0.05834303  0.68466139    -0.38100
N2518       N  0.47591989  0.21550215  0.67443063    -0.38100
C2519       C  0.91109943  0.33569430  0.66742539    -0.04800
C2520       C  0.94474046  0.34601335  0.66736611    -0.01900
C2521       C  0.95399827  0.37577090  0.67637777     0.03100
C2522       C  0.93087779  0.39305241  0.68837944    -0.04800
C2523       C  0.89767102  0.38061051  0.68986043    -0.01900
C2524       C  0.88759592  0.35286849  0.67879914     0.03100
C2525       C  0.96940509  0.32708842  0.65661706     0.37700
C2526       C  0.87301096  0.39733654  0.70166749     0.37700
C2527       C  0.85277377  0.34260963  0.67853376     0.36100
C2528       C  0.98654486  0.38934229  0.67154369     0.36100
N2529       N  0.82500257  0.33436896  0.67824262    -0.38700
N2530       N  0.01215514  0.40013181  0.66695093    -0.38700
N2531       N  0.85318964  0.41051785  0.71108575    -0.38100
N2532       N  0.98884504  0.31198002  0.64795624    -0.38100
C2533       C  0.83398363  0.11465088  0.54605708    -0.04800
C2534       C  0.81214870  0.13545536  0.55666136    -0.01900
C2535       C  0.82505470  0.16031610  0.56877234     0.03100
C2536       C  0.85987040  0.16617221  0.56966917    -0.04800
C2537       C  0.88150260  0.14803091  0.55754202    -0.01900
C2538       C  0.86866749  0.12229977  0.54576416     0.03100
C2539       C  0.77607030  0.13279747  0.55432970     0.37700
C2540       C  0.91701239  0.15566121  0.55740542     0.37700
C2541       C  0.89129592  0.10395421  0.53346470     0.36100
C2542       C  0.80230951  0.18024280  0.58025651     0.36100
N2543       N  0.90950001  0.08974329  0.52349439    -0.38700
N2544       N  0.78422056  0.19632845  0.58928594    -0.38700
N2545       N  0.94536106  0.16173634  0.55736294    -0.38100
N2546       N  0.74729104  0.13133408  0.55228491    -0.38100
C2547       C  0.83747061  0.39826714  0.55243967    -0.04800
C2548       C  0.86491999  0.37955659  0.54526320    -0.01900
C2549       C  0.87616214  0.35074099  0.55517554     0.03100
C2550       C  0.86064644  0.34055606  0.57247004    -0.04800
C2551       C  0.83390185  0.35925084  0.57995296    -0.01900
C2552       C  0.82272637  0.38807549  0.57034765     0.03100
C2553       C  0.88284647  0.39031221  0.52818609     0.37700
C2554       C  0.81821844  0.34911983  0.59802559     0.37700
C2555       C  0.79629191  0.40700469  0.57962343     0.36100
C2556       C  0.90425412  0.33179769  0.54784162     0.36100
N2557       N  0.77516423  0.42160329  0.58724060    -0.38700
N2558       N  0.92653700  0.31644764  0.54202982    -0.38700
N2559       N  0.80603228  0.34132834  0.61251236    -0.38100
N2560       N  0.89761200  0.39884151  0.51468797    -0.38100
C2561       C  0.66663509  0.10560262  0.55777273    -0.04800
C2562       C  0.68230520  0.11062191  0.57610957    -0.01900
C2563       C  0.67719515  0.14012385  0.58619332     0.03100
C2564       C  0.65142116  0.16204483  0.58044654    -0.04800
C2565       C  0.63242466  0.15521639  0.56353972    -0.01900
C2566       C  0.64120363  0.12806700  0.55164079     0.03100
C2567       C  0.70287261  0.08515187  0.58533467     0.37700
C2568       C  0.60383064  0.17590661  0.55851003     0.37700
C2569       C  0.62442192  0.12385121  0.53311238     0.36100
C2570       C  0.69909000  0.14820530  0.60242772     0.36100
N2571       N  0.61109672  0.12067636  0.51827511    -0.38700
N2572       N  0.71676647  0.15481990  0.61520118    -0.38700
N2573       N  0.58076815  0.19216833  0.55456526    -0.38100
N2574       N  0.71900955  0.06485537  0.59284780    -0.38100
C2575       C  0.66310112  0.33519256  0.57628478    -0.04800
C2576       C  0.69649084  0.34179938  0.57096273    -0.01900
C2577       C  0.70320180  0.36753957  0.55783400     0.03100
C2578       C  0.67721841  0.38919253  0.55177885    -0.04800
C2579       C  0.64357525  0.38113531  0.55591231    -0.01900
C2580       C  0.63652772  0.35336141  0.56761449     0.03100
C2581       C  0.72396675  0.32246734  0.57917040     0.37700
C2582       C  0.61630393  0.40193903  0.54889277     0.37700
C2583       C  0.60203742  0.34438319  0.57157012     0.36100
C2584       C  0.73629488  0.37033012  0.54944689     0.36100
N2585       N  0.57455786  0.33720550  0.57479270    -0.38700
N2586       N  0.76224293  0.37194893  0.54213484    -0.38700
N2587       N  0.59445398  0.41846061  0.54330004    -0.38100
N2588       N  0.74587155  0.30700428  0.58567060    -0.38100
C2589       C  0.61921484  0.15643038  0.33442425    -0.04800
C2590       C  0.63563808  0.15428194  0.31637635    -0.01900
C2591       C  0.63021237  0.12672831  0.30413924     0.03100
C2592       C  0.61027091  0.09983907  0.31033859    -0.04800
C2593       C  0.59655243  0.10054938  0.32910758    -0.01900
C2594       C  0.59977993  0.12910959  0.34074618     0.03100
C2595       C  0.65805801  0.18050249  0.31035501     0.37700
C2596       C  0.57648824  0.07290298  0.33577158     0.37700
C2597       C  0.58125947  0.13110865  0.35872574     0.36100
C2598       C  0.64360332  0.12688887  0.28466791     0.36100
N2599       N  0.06645173  0.13279818  0.37304289    -0.38700
N2600       N  0.65403442  0.12719338  0.26906801    -0.38700
N2601       N  0.56033333  0.05095647  0.34106632    -0.38100
N2602       N  0.67607223  0.20141289  0.30567238    -0.38100
C2603       C  0.60823205  0.38539501  0.30070947    -0.04800
C2604       C  0.60581951  0.35226222  0.29421258    -0.01900
C2605       C  0.61575999  0.32588497  0.30649555     0.03100
C2606       C  0.62225299  0.33206580  0.32633263    -0.04800
C2607       C  0.63497142  0.36427060  0.33027242    -0.01900
C2608       C  0.62646573  0.39124926  0.31793664     0.03100
C2609       C  0.59445349  0.34504031  0.27467561     0.37700
C2610       C  0.65887458  0.36910073  0.34596500     0.37700
C2611       C  0.63586470  0.42459191  0.32322344     0.36100
C2612       C  0.62720154  0.29547675  0.29765938     0.36100
N2613       N  0.64367696  0.45115124  0.32745562    -0.38700
N2614       N  0.63683306  0.27155562  0.29038529    -0.38700
N2615       N  0.67805070  0.37281437  0.35844233    -0.38100
N2616       N  0.58517499  0.33896892  0.25917217    -0.38100
C2617       C  0.64355818  0.16994235  0.43217069    -0.04800
C2618       C  0.61810830  0.14816710  0.43828512    -0.01900
C2619       C  0.62638642  0.12057407  0.44999213     0.03100
C2620       C  0.66022141  0.11451330  0.45507044    -0.04800
C2621       C  0.68488911  0.13838590  0.45072152    -0.01900
C2622       C  0.67664291  0.16590625  0.43910267     0.03100
C2623       C  0.58385352  0.15323367  0.43160489     0.37700
C2624       C  0.71876282  0.13474551  0.45830633     0.37700
C2625       C  0.70254221  0.18892179  0.43319016     0.36100
C2626       C  0.60043021  0.09777385  0.45601960     0.36100
N2627       N  0.72312507  0.20723223  0.42833491    -0.38700
N2628       N  0.57962242  0.07980897  0.46100008    -0.38700
N2629       N  0.74567403  0.13221598  0.46456511    -0.38100
N2630       N  0.55658158  0.15731699  0.42618772    -0.38100
C2631       C  0.63291505  0.34080926  0.42604053    -0.04800
C2632       C  0.61004577  0.36028770  0.43659729    -0.01900
C2633       C  0.62182864  0.38673792  0.44821340     0.03100
C2634       C  0.65673936  0.39250978  0.45019644    -0.04800
C2635       C  0.67945585  0.37102835  0.44072875    -0.01900
C2636       C  0.66761133  0.34648606  0.42809516     0.03100
C2637       C  0.57447703  0.35338238  0.43519052     0.37700
C2638       C  0.71530474  0.37323268  0.44429217     0.37700
C2639       C  0.69133044  0.32737090  0.41678415     0.36100
C2640       C  0.59795285  0.40884352  0.45720676     0.36100
N2641       N  0.71018336  0.31241807  0.40761352    -0.38700
N2642       N  0.57876854  0.42658540  0.46422703    -0.38700
N2643       N  0.74392238  0.37427398  0.44710905    -0.38100
N2644       N  0.54609469  0.34772980  0.43403721    -0.38100
C2645       C  0.94156594  0.11490664  0.30884481    -0.04800
C2646       C  0.90667430  0.12138937  0.30994498    -0.01900
C2647       C  0.89471801  0.14911291  0.32042754     0.03100
C2648       C  0.91737411  0.17059245  0.32992219    -0.04800
C2649       C  0.95197896  0.16395106  0.32910932    -0.01900
C2650       C  0.96397360  0.13654075  0.31867230     0.03100
C2651       C  0.88298536  0.10039170  0.29986351     0.37700
C2652       C  0.97534332  0.18481569  0.33968047     0.37700
C2653       C  0.99982947  0.13092240  0.31823591     0.36100
C2654       C  0.85899354  0.15559574  0.32158664     0.36100
N2655       N  0.52854604  0.12721146  0.31769652    -0.38700
N2656       N  0.83049966  0.16086335  0.32257306    -0.38700
N2657       N  0.99397237  0.20130577  0.34815919    -0.38100
N2658       N  0.86388713  0.08374472  0.29185251    -0.38100
C2659       C  0.94359978  0.40131969  0.31338236    -0.04800
C2660       C  0.90920334  0.39452476  0.31611122    -0.01900
C2661       C  0.89927066  0.36679041  0.32736553     0.03100
C2662       C  0.92353744  0.34554224  0.33599036    -0.04800
C2663       C  0.95776740  0.35358764  0.33440222    -0.01900
C2664       C  0.96774511  0.38133054  0.32331455     0.03100
C2665       C  0.88396404  0.41515036  0.30675994     0.37700
C2666       C  0.98278693  0.33339775  0.34437656     0.37700
C2667       C  0.00315120  0.38942092  0.32241986     0.36100
C2668       C  0.86394391  0.35972429  0.32984158     0.36100
N2669       N  0.53145523  0.39559919  0.32196501    -0.38700
N2670       N  0.83573484  0.35407417  0.33179668    -0.38700
N2671       N  0.00277962  0.31743674  0.35237863    -0.38100
N2672       N  0.86374038  0.43164765  0.29935954    -0.38100
C2673       C  0.83895134  0.16548229  0.41913763    -0.04800
C2674       C  0.81400630  0.14424463  0.41193887    -0.01900
C2675       C  0.80330547  0.11693437  0.42303041     0.03100
C2676       C  0.81742799  0.11052974  0.44178368    -0.04800
C2677       C  0.84124381  0.13318678  0.44932607    -0.01900
C2678       C  0.85207025  0.16031773  0.43797145     0.03100
C2679       C  0.79898395  0.15084213  0.39303208     0.37700
C2680       C  0.85381102  0.12970973  0.46902064     0.37700
C2681       C  0.87672802  0.18316046  0.44566514     0.36100
C2682       C  0.77765467  0.09579256  0.41468577     0.36100
N2683       N  0.89618017  0.20165570  0.45174646    -0.38700
N2684       N  0.75699468  0.07931136  0.40794051    -0.38700
N2685       N  0.86377899  0.12727874  0.48476947    -0.38100
N2686       N  0.78696175  0.15611434  0.37799862    -0.38100
C2687       C  0.84522857  0.33896379  0.42252266    -0.04800
C2688       C  0.82779858  0.36513827  0.41321566    -0.01900
C2689       C  0.81847569  0.39341253  0.42367961     0.03100
C2690       C  0.82340689  0.39452765  0.44404071    -0.04800
C2691       C  0.83886836  0.36725887  0.45354916    -0.01900
C2692       C  0.85108089  0.34026522  0.44271038     0.03100
C2693       C  0.81941108  0.36292811  0.39272949     0.37700
C2694       C  0.84021661  0.36576457  0.47451380     0.37700
C2695       C  0.86996454  0.31399453  0.45226097     0.36100
C2696       C  0.80482796  0.42170037  0.41315071     0.36100
N2697       N  0.88510210  0.29294589  0.45974924    -0.38700
N2698       N  0.79419499  0.44418675  0.40459625    -0.38700
N2699       N  0.84062485  0.36402087  0.49125116    -0.38100
N2700       N  0.81275962  0.36098168  0.37642357    -0.38100
N2701       N  0.88602225  0.80362025  0.37919841    -0.36100
N2702       N  0.85998997  0.75226911  0.40422065    -0.56600
N2703       N  0.87755005  0.70434054  0.37495313    -0.36000
N2704       N  0.90489560  0.75639277  0.35034434    -0.56600
C2705       C  0.88270531  0.81947964  0.39625560     0.27500
C2706       C  0.90614551  0.82237995  0.36795648     0.27500
C2707       C  0.87195356  0.68461008  0.39053269     0.27500
C2708       C  0.89537245  0.68636365  0.36214463     0.27500
C2709       C  0.84640482  0.77899601  0.41278684     0.36100
C2710       C  0.84328592  0.72574982  0.41100525     0.36200
C2711       C  0.91046173  0.78444757  0.34002453     0.36100
C2712       C  0.90679502  0.73077292  0.33786922     0.36200
C2713       C  0.90149868  0.84827131  0.39602870    -0.21300
C2714       C  0.91615779  0.85021231  0.37809517    -0.21300
C2715       C  0.88626080  0.65377597  0.38757345    -0.21300
C2716       C  0.90102976  0.65485250  0.36966487    -0.21300
C2717       C  0.82082307  0.76945917  0.42508985    -0.22400
C2718       C  0.81906167  0.73550048  0.42409172    -0.22400
C2719       C  0.91626951  0.77661297  0.32082531    -0.22400
C2720       C  0.91408539  0.74256547  0.31947342    -0.22400
C2721       C  0.85889978  0.81136753  0.41055080    -0.17700
C2722       C  0.91285374  0.81652190  0.34820948    -0.17700
C2723       C  0.90495720  0.69688977  0.34338568    -0.17700
C2724       C  0.85179268  0.69285756  0.40657274    -0.17700
H2725       H  0.90312626  0.86673160  0.40729083     0.15200
H2726       H  0.93160281  0.87032466  0.37292829     0.15200
H2727       H  0.88564041  0.63252620  0.39718888     0.15200
H2728       H  0.91413536  0.63453996  0.36287853     0.15200
H2729       H  0.80559486  0.78519280  0.43414004     0.13500
H2730       H  0.80218595  0.71977683  0.43216403     0.13500
H2731       H  0.92220816  0.79355536  0.30914997     0.13500
H2732       H  0.91795296  0.72810257  0.30653177     0.13500
H2733       H  0.87106271  0.78422476  0.37442381     0.26700
H2734       H  0.86647839  0.72726840  0.37222623     0.26700
N2735       N  0.62929056  0.70069671  0.38144908    -0.36100
N2736       N  0.62459071  0.75304526  0.40987660    -0.56600
N2737       N  0.62079954  0.80012914  0.37826468    -0.36000
N2738       N  0.62541399  0.74678902  0.34893238    -0.56600
C2739       C  0.64102595  0.68481211  0.39740464     0.27500
C2740       C  0.63690796  0.68152788  0.36607497     0.27500
C2741       C  0.61466682  0.82025209  0.39351806     0.27500
C2742       C  0.61259552  0.81724553  0.36194350     0.27500
C2743       C  0.62871064  0.72749216  0.42232260     0.36100
C2744       C  0.62415615  0.78068101  0.42070195     0.36200
C2745       C  0.61362267  0.71837471  0.34109143     0.36100
C2746       C  0.61148172  0.77209881  0.33873904     0.36200
C2747       C  0.65674479  0.65555702  0.39201816    -0.21300
C2748       C  0.65433335  0.65362857  0.37221107    -0.21300
C2749       C  0.60171513  0.85007631  0.38691426    -0.21300
C2750       C  0.59919625  0.84774337  0.36709739    -0.21300
C2751       C  0.62955140  0.73882309  0.44124490    -0.22400
C2752       C  0.62713982  0.77268023  0.44018900    -0.22400
C2753       C  0.59125025  0.72548449  0.32623049    -0.22400
C2754       C  0.58889653  0.75955081  0.32525325    -0.22400
C2755       C  0.63636177  0.69485441  0.41678576    -0.17700
C2756       C  0.62373884  0.68634337  0.34726734    -0.17700
C2757       C  0.61748306  0.80619039  0.34256612    -0.17700
C2758       C  0.62182049  0.81311278  0.41321281    -0.17700
H2759       H  0.66818341  0.63707142  0.40139845     0.15200
H2760       H  0.66302842  0.63330278  0.36340603     0.15200
H2761       H  0.59422856  0.87111810  0.39549859     0.15200
H2762       H  0.58890389  0.86664717  0.35757230     0.15200
H2763       H  0.63337358  0.72439586  0.45435234     0.13500
H2764       H  0.62779098  0.78949521  0.45233101     0.13500
H2765       H  0.57728571  0.70800076  0.31754246     0.13500
H2766       H  0.57210721  0.77348889  0.31584823     0.13500
H2767       H  0.61298234  0.72090496  0.38120428     0.26700
H2768       H  0.63379351  0.77778191  0.37875694     0.26700
N2769       N  0.80563453  0.96349345  0.47435710    -0.05600
N2770       N  0.82570581  0.93825060  0.47032203    -0.57700
N2771       N  0.77811603  0.53938353  0.46167688    -0.05200
N2772       N  0.77821068  0.56404673  0.44923008    -0.59800
N2773       N  0.80452286  0.54056308  0.47315524    -0.04800
N2774       N  0.82327119  0.56640649  0.46845551    -0.57700
N2775       N  0.77962613  0.96369490  0.46247385    -0.04500
N2776       N  0.78138071  0.93892838  0.45026782    -0.60200
C2777       C  0.81011831  0.92317895  0.45518513     0.96600
C2778       C  0.80641635  0.58088423  0.45334992     0.96400
N2779       N  0.67863633  0.53919499  0.47929253    -0.05800
N2780       N  0.65926830  0.56577738  0.47793426    -0.58300
N2781       N  0.70169569  0.96327448  0.46528785    -0.03900
N2782       N  0.69680155  0.93921906  0.45288172    -0.59500
N2783       N  0.67940839  0.96227569  0.47919804    -0.05800
N2784       N  0.65878013  0.93695170  0.47645904    -0.58500
N2785       N  0.70068510  0.53890929  0.46522818    -0.03500
N2786       N  0.69684424  0.56505133  0.45398711    -0.59600
Mn2787     Mn  0.74003232  0.50126533  0.46321066     1.18400
C2788       C  0.67101388  0.58152608  0.46201549     0.98700
C2789       C  0.67023825  0.92268142  0.45994333     0.99400
N2790       N  0.81171928  0.54249190  0.51893921    -0.05800
N2791       N  0.83180476  0.56839488  0.52091186    -0.62100
N2792       N  0.79054960  0.96692208  0.53429689    -0.04600
N2793       N  0.79596427  0.94410017  0.54751530    -0.62800
N2794       N  0.81309288  0.96537292  0.52058789    -0.05300
N2795       N  0.83445706  0.94083305  0.52445826    -0.62400
N2796       N  0.78941522  0.54216719  0.53286909    -0.04200
N2797       N  0.79391279  0.56737439  0.54456504    -0.63100
Mn2798     Mn  0.81047255  0.50285799  0.49662588     1.10700
C2799       C  0.82016633  0.58387940  0.53698062     0.99900
C2800       C  0.82336762  0.92773507  0.54152423     1.00000
N2801       N  0.68733983  0.96331583  0.52482341    -0.05300
N2802       N  0.66954558  0.93635642  0.52806370    -0.60700
N2803       N  0.71159926  0.54039505  0.53589177    -0.04600
N2804       N  0.70972302  0.56436724  0.54848214    -0.57400
N2805       N  0.68471026  0.53978512  0.52479466    -0.05900
N2806       N  0.66359553  0.56358572  0.53002464    -0.60300
N2807       N  0.71302761  0.96471305  0.53687635    -0.04900
N2808       N  0.71324662  0.93888746  0.54857154    -0.57400
Mn2809     Mn  0.68090387  0.50105263  0.50210969     1.20200
Mn2810     Mn  0.75111156  0.50364115  0.53536897     1.10100
Cl2811     Cl  0.74569243  0.50209822  0.49932686    -0.85400
C2812       C  0.68612742  0.92139220  0.54292845     0.96900
C2813       C  0.67969562  0.57860981  0.54506091     0.96700
N2814       N  0.88498398  0.70101669  0.61772861    -0.36100
N2815       N  0.87882155  0.75212993  0.58795887    -0.56600
N2816       N  0.88715777  0.80127593  0.61844788    -0.36000
N2817       N  0.89568105  0.75072482  0.64751230    -0.56600
C2818       C  0.88567263  0.68253352  0.60141112     0.27500
C2819       C  0.89676880  0.68190121  0.63252070     0.27500
C2820       C  0.88900639  0.82001792  0.60222031     0.27500
C2821       C  0.89924610  0.81970121  0.63322764     0.27500
C2822       C  0.86829044  0.72591624  0.57752534     0.36100
C2823       C  0.86837620  0.77943428  0.57817690     0.36200
C2824       C  0.89322815  0.72366512  0.65895202     0.36100
C2825       C  0.89518501  0.77727580  0.65931841     0.36200
C2826       C  0.89769758  0.65116855  0.60590281    -0.21300
C2827       C  0.90530456  0.65095486  0.62540213    -0.21300
C2828       C  0.90221290  0.85070935  0.60665374    -0.21300
C2829       C  0.90855195  0.85060907  0.62620074    -0.21300
C2830       C  0.85241880  0.73667364  0.56064468    -0.22400
C2831       C  0.85211076  0.77062382  0.56118723    -0.22400
C2832       C  0.89075058  0.73314564  0.67819049    -0.22400
C2833       C  0.89257690  0.76711408  0.67843414    -0.22400
C2834       C  0.87286833  0.69239467  0.58301729    -0.17700
C2835       C  0.89753089  0.69072193  0.65246878    -0.17700
C2836       C  0.90020896  0.81018260  0.65304336    -0.17700
C2837       C  0.87412229  0.81220314  0.58423437    -0.17700
H2838       H  0.90047690  0.63042167  0.59621431     0.15200
H2839       H  0.91506787  0.62996411  0.63350126     0.15200
H2840       H  0.90563011  0.87149221  0.59690370     0.15200
H2841       H  0.91797182  0.87147107  0.63430125     0.15200
H2842       H  0.84168712  0.72166715  0.54925659     0.13500
H2843       H  0.84121187  0.78691538  0.55031345     0.13500
H2844       H  0.88921818  0.71719471  0.69080590     0.13500
H2845       H  0.89254492  0.78246860  0.69122050     0.13500
H2846       H  0.87305800  0.72375235  0.61908403     0.26700
H2847       H  0.87390235  0.77931846  0.61969530     0.26700
N2848       N  0.64754303  0.80321665  0.62671721    -0.36100
N2849       N  0.63582622  0.75483552  0.65697945    -0.56600
N2850       N  0.63775471  0.70279439  0.62807447    -0.36000
N2851       N  0.64701070  0.75084800  0.59734909    -0.56600
C2852       C  0.63746790  0.82344574  0.64120297     0.27500
C2853       C  0.64721789  0.82135509  0.61015553     0.27500
C2854       C  0.62703121  0.68526764  0.64358628     0.27500
C2855       C  0.63284619  0.68368433  0.61223550     0.27500
C2856       C  0.63711239  0.78207793  0.66816439     0.36100
C2857       C  0.63360194  0.72866752  0.66911807     0.36200
C2858       C  0.65793950  0.77619925  0.58630991     0.36100
C2859       C  0.65212300  0.72305296  0.58696844     0.36200
C2860       C  0.63140593  0.85485640  0.63374490    -0.21300
C2861       C  0.63820211  0.85372071  0.61433112    -0.21300
C2862       C  0.61611886  0.65436279  0.63745449    -0.21300
C2863       C  0.61940087  0.65358069  0.61773866    -0.21300
C2864       C  0.63634339  0.77317026  0.68757589    -0.22400
C2865       C  0.63383656  0.73931854  0.68818158    -0.22400
C2866       C  0.66910768  0.76451213  0.56861719    -0.22400
C2867       C  0.66580052  0.73076727  0.56914186    -0.22400
C2868       C  0.63428889  0.81482876  0.66107621    -0.17700
C2869       C  0.65607106  0.80990508  0.59148792    -0.17700
C2870       C  0.64387127  0.69088718  0.59325473    -0.17700
C2871       C  0.62692358  0.69597943  0.66319289    -0.17700
H2872       H  0.62319938  0.87661922  0.64146018     0.15200
H2873       H  0.63635055  0.87456975  0.60448501     0.15200
H2874       H  0.60700853  0.63406383  0.64620792     0.15200
H2875       H  0.61347101  0.63277981  0.60853242     0.15200
H2876       H  0.63598360  0.78946661  0.69995961     0.13500
H2877       H  0.63113135  0.72444183  0.70115983     0.13500
H2878       H  0.67861517  0.77873564  0.55653363     0.13500
H2879       H  0.67245367  0.71393181  0.55765005     0.13500
H2880       H  0.65708489  0.77950172  0.62815943     0.26700
H2881       H  0.65116314  0.72458892  0.62856078     0.26700
N2882       N  0.98054179  0.93947172  0.27267175    -0.05600
N2883       N  0.97901093  0.91519714  0.28536061    -0.57700
N2884       N  0.94953847  0.96961519  0.23260620    -0.05200
N2885       N  0.92289855  0.96736663  0.22130017    -0.59800
N2886       N  0.97163327  0.94645237  0.22849267    -0.04800
N2887       N  0.95949755  0.92741601  0.21440649    -0.57700
N2888       N  0.95929583  0.96338694  0.27690352    -0.04500
N2889       N  0.94195391  0.95473584  0.29256089    -0.60200
C2890       C  0.95520967  0.92465828  0.29782923     0.96600
C2891       C  0.92905901  0.94123555  0.20981630     0.96400
N2892       N  0.97980477  0.56577876  0.22996457    -0.05800
N2893       N  0.97147216  0.58686866  0.21586113    -0.58300
N2894       N  0.96207176  0.54726967  0.27722618    -0.03900
N2895       N  0.94163960  0.55918385  0.29070481    -0.59500
N2896       N  0.98608859  0.56880037  0.27391565    -0.05800
N2897       N  0.98320426  0.59462842  0.28521909    -0.58500
N2898       N  0.95485029  0.54511719  0.23312005    -0.03500
N2899       N  0.92977450  0.55104087  0.22104242    -0.59600
Mn2900     Mn  0.95559982  0.00627690  0.25571956     1.18400
C2901       C  0.94026110  0.57694756  0.21037186     0.98700
C2902       C  0.95577953  0.58864147  0.29585108     0.99400
N2903       N  0.55600734  0.94231495  0.22643041    -0.05800
N2904       N  0.56339423  0.92191394  0.21203640    -0.62100
N2905       N  0.58013674  0.95597629  0.27342161    -0.04600
N2906       N  0.60300036  0.94299072  0.28539947    -0.62800
N2907       N  0.55608197  0.93436196  0.27032395    -0.05300
N2908       N  0.56139580  0.90716859  0.28044722    -0.62400
N2909       N  0.58118033  0.96280027  0.22941588    -0.04200
N2910       N  0.60534010  0.95753298  0.21690138    -0.63100
Mn2911     Mn  0.51579604  0.94014977  0.24874051     1.10700
C2912       C  0.59400064  0.93239038  0.20598626     0.99900
C2913       C  0.59059645  0.91252301  0.28981045     1.00000
N2914       N  0.56213575  0.56388275  0.27310602    -0.05300
N2915       N  0.56784937  0.58800921  0.28534743    -0.60700
N2916       N  0.58594355  0.53771619  0.23156986    -0.04600
N2917       N  0.61162362  0.54130763  0.22006021    -0.57400
N2918       N  0.56394831  0.56173587  0.22903052    -0.05900
N2919       N  0.57529838  0.58293436  0.21579939    -0.60300
N2920       N  0.58381887  0.53945211  0.27560523    -0.04900
N2921       N  0.60557344  0.54742566  0.28957163    -0.57400
Mn2922     Mn  0.52296186  0.56559796  0.25082298     1.20200
Mn2923     Mn  0.58335622  0.99891510  0.25322073     1.10100
Cl2924     Cl  0.51940449  0.00274302  0.25214459    -0.85400
C2925       C  0.59468231  0.57771969  0.29561099     0.96900
C2926       C  0.60491114  0.56914802  0.21007120     0.96700
N2927       N  0.97384136  0.68459748  0.97728229    -0.05600
N2928       N  0.94772060  0.66474482  0.97547811    -0.57700
N2929       N  0.55020685  0.70810408  0.96322982    -0.05200
N2930       N  0.57335305  0.70206584  0.95015481    -0.59800
N2931       N  0.55130147  0.68545855  0.97694514    -0.04800
N2932       N  0.57527490  0.66374131  0.97344153    -0.57700
N2933       N  0.97301900  0.70759995  0.96371522    -0.04500
N2934       N  0.94649995  0.70378310  0.95239905    -0.60200
C2935       C  0.93079590  0.67701104  0.95988155     0.96600
C2936       C  0.58907414  0.67427565  0.95662660     0.96400
N2937       N  0.54842258  0.80994138  0.97604000    -0.05800
N2938       N  0.57428859  0.82988240  0.97368386    -0.58300
N2939       N  0.97211806  0.78525354  0.96234964    -0.03900
N2940       N  0.94871189  0.78972784  0.94902845    -0.59500
N2941       N  0.97118854  0.80922653  0.97510623    -0.05800
N2942       N  0.94712948  0.83059553  0.97045699    -0.58500
N2943       N  0.54902009  0.78608160  0.96314217    -0.03500
N2944       N  0.57518912  0.78928475  0.95177370    -0.59600
Mn2945     Mn  0.51112017  0.74678585  0.96251527     1.18400
C2946       C  0.59075587  0.81659134  0.95850625     0.98700
C2947       C  0.93310618  0.81811304  0.95405524     0.99400
N2948       N  0.55255219  0.68702982  0.02300050    -0.05800
N2949       N  0.57819129  0.66709867  0.02716496    -0.62100
N2950       N  0.97408205  0.70945426  0.03516402    -0.04600
N2951       N  0.94802021  0.70589042  0.04657569    -0.62800
N2952       N  0.97515984  0.68545340  0.02240989    -0.05300
N2953       N  0.94990910  0.66487307  0.02489593    -0.62400
N2954       N  0.55073266  0.71071856  0.03590481    -0.04200
N2955       N  0.57456932  0.70730446  0.04901305    -0.63100
Mn2956     Mn  0.51351522  0.68439700  0.99991294     1.10700
C2957       C  0.59190804  0.68028439  0.04350435     0.99900
C2958       C  0.93327162  0.67809900  0.03996634     1.00000
N2959       N  0.97069334  0.80988517  0.02135560    -0.05300
N2960       N  0.94500722  0.82990132  0.02474509    -0.60700
N2961       N  0.54941751  0.78816910  0.03474696    -0.04600
N2962       N  0.57537109  0.79214051  0.04645140    -0.57400
N2963       N  0.54846245  0.81169644  0.02148874    -0.05900
N2964       N  0.57378793  0.83237092  0.02399793    -0.60300
N2965       N  0.97248315  0.78679454  0.03481610    -0.04900
N2966       N  0.94848668  0.79069296  0.04755371    -0.57400
Mn2967     Mn  0.50943157  0.81154760  0.99847555     1.20200
Mn2968     Mn  0.51167442  0.74880116  0.03565941     1.10100
Cl2969     Cl  0.51147212  0.74790637  0.99912422    -0.85400
C2970       C  0.93119236  0.81746452  0.04120295     0.96900
C2971       C  0.59032790  0.81971251  0.03960857     0.96700
N2972       N  0.70522076  0.88495917  0.87823966    -0.36100
N2973       N  0.75295042  0.90051772  0.84773823    -0.56600
N2974       N  0.80691942  0.88976315  0.87548723    -0.36000
N2975       N  0.75982811  0.87423326  0.90604702    -0.56600
C2976       C  0.68407936  0.88652675  0.86276066     0.27500
C2977       C  0.68783673  0.87159512  0.89314739     0.27500
C2978       C  0.82413614  0.90379375  0.86076209     0.27500
C2979       C  0.82769952  0.88915467  0.89110045     0.27500
C2980       C  0.72457568  0.90382720  0.83706141     0.36100
C2981       C  0.77888710  0.90528735  0.83556086     0.36200
C2982       C  0.73428531  0.86571396  0.91774606     0.36100
C2983       C  0.78841691  0.86795778  0.91606185     0.36200
C2984       C  0.65286217  0.87460128  0.86800963    -0.21300
C2985       C  0.65523955  0.86510461  0.88706691    -0.21300
C2986       C  0.85594574  0.91252124  0.86721916    -0.21300
C2987       C  0.85826055  0.90303218  0.88630813    -0.21300
C2988       C  0.73253980  0.91127591  0.81801185    -0.22400
C2989       C  0.76687552  0.91116337  0.81694305    -0.22400
C2990       C  0.74674992  0.85502821  0.93555527    -0.22400
C2991       C  0.78105019  0.85573076  0.93432387    -0.22400
C2992       C  0.69165706  0.89833563  0.84390031    -0.17700
C2993       C  0.70008740  0.86468659  0.91214754    -0.17700
C2994       C  0.82105697  0.87390205  0.90912832    -0.17700
C2995       C  0.81306630  0.90688786  0.84127390    -0.17700
H2996       H  0.63070659  0.87238653  0.85894124     0.15200
H2997       H  0.63518792  0.85420586  0.89540778     0.15200
H2998       H  0.87573564  0.92396833  0.85891567     0.15200
H2999       H  0.88010483  0.90567770  0.89558505     0.15200
H3000       H  0.71550062  0.91555013  0.80596321     0.13500
H3001       H  0.78121770  0.91582061  0.80398006     0.13500
H3002       H  0.73269617  0.84640523  0.94793327     0.13500
H3003       H  0.79845863  0.84832915  0.94567006     0.13500
H3004       H  0.72913270  0.89485226  0.87899281     0.26700
H3005       H  0.78436407  0.87713577  0.87425455     0.26700
N3006       N  0.76017185  0.60730863  0.91230933    -0.36100
N3007       N  0.70922886  0.59109906  0.88305789    -0.56600
N3008       N  0.75977749  0.58632741  0.85333297    -0.36000
N3009       N  0.81069181  0.60580072  0.88174536    -0.56600
C3010       C  0.73189152  0.61585036  0.92184030     0.27500
C3011       C  0.78624932  0.62119563  0.92188615     0.27500
C3012       C  0.73165621  0.58444452  0.84218233     0.27500
C3013       C  0.78625358  0.59014909  0.84137377     0.27500
C3014       C  0.69020719  0.59122740  0.89912001     0.36100
C3015       C  0.69004558  0.57832156  0.86877327     0.36200
C3016       C  0.83096243  0.61266135  0.89705029     0.36100
C3017       C  0.83099830  0.60095486  0.86635434     0.36200
C3018       C  0.74025375  0.63388803  0.93817944    -0.21300
C3019       C  0.77455932  0.63682064  0.93837944    -0.21300
C3020       C  0.74051262  0.58682457  0.82284038    -0.21300
C3021       C  0.77489902  0.58955487  0.82231454    -0.21300
C3022       C  0.65889690  0.57806674  0.89515264    -0.22400
C3023       C  0.65894916  0.56937954  0.87597775    -0.22400
C3024       C  0.86415289  0.61298079  0.89120951    -0.22400
C3025       C  0.86417775  0.60560088  0.87186709    -0.22400
C3026       C  0.69864118  0.60811831  0.91623386    -0.17700
C3027       C  0.82017675  0.62128459  0.91590827    -0.17700
C3028       C  0.82041178  0.59327607  0.84717270    -0.17700
C3029       C  0.69847958  0.57884102  0.84891338    -0.17700
H3030       H  0.72337908  0.64409426  0.94882005     0.15200
H3031       H  0.78905075  0.65002431  0.94914355     0.15200
H3032       H  0.72404700  0.58589766  0.81031356     0.15200
H3033       H  0.78963984  0.59111426  0.80926681     0.15200
H3034       H  0.63788039  0.57600162  0.90491024     0.13500
H3035       H  0.63790834  0.55920065  0.86802784     0.13500
H3036       H  0.88614535  0.61847388  0.89989089     0.13500
H3037       H  0.88620843  0.60428544  0.86284215     0.13500
H3038       H  0.76180425  0.59171517  0.90047331     0.26700
H3039       H  0.76136933  0.58189772  0.86810181     0.26700
N3040       N  0.57208650  0.96570579  0.72239287    -0.05600
N3041       N  0.59446546  0.94197303  0.71981626    -0.57700
N3042       N  0.54691288  0.54154916  0.71004512    -0.05200
N3043       N  0.55007264  0.56734806  0.69858298    -0.59800
N3044       N  0.56936447  0.54213154  0.72404264    -0.04800
N3045       N  0.58826145  0.56886794  0.72233572    -0.57700
N3046       N  0.54947205  0.96574467  0.70843726    -0.04500
N3047       N  0.55590140  0.94180966  0.69605201    -0.60200
C3048       C  0.58411671  0.92734225  0.70329731     0.96600
C3049       C  0.57578410  0.58449205  0.70628617     0.96400
N3050       N  0.94470192  0.54050535  0.72057120    -0.05800
N3051       N  0.92357924  0.56539415  0.71747329    -0.58300
N3052       N  0.97064783  0.96558736  0.70620494    -0.03900
N3053       N  0.96863837  0.94183251  0.69336056    -0.59500
N3054       N  0.94601155  0.96359434  0.71866799    -0.05800
N3055       N  0.92690121  0.93774183  0.71448859    -0.58500
N3056       N  0.96919757  0.54127626  0.70793596    -0.03500
N3057       N  0.96555378  0.56682176  0.69613101    -0.59600
Mn3058     Mn  0.50905829  0.00343507  0.70764207     1.18400
C3059       C  0.93711011  0.58160774  0.70221200     0.98700
C3060       C  0.94142847  0.92428353  0.69853974     0.99400
N3061       N  0.56833067  0.53667844  0.76962705    -0.05800
N3062       N  0.59457788  0.55351510  0.77563852    -0.62100
N3063       N  0.54405772  0.95964878  0.78052586    -0.04600
N3064       N  0.55221460  0.93866178  0.79453661    -0.62800
N3065       N  0.56843706  0.96149781  0.76780854    -0.05300
N3066       N  0.59327537  0.94153533  0.77295790    -0.62400
N3067       N  0.54581621  0.53436512  0.78340245    -0.04200
N3068       N  0.55718129  0.54921076  0.79920840    -0.63100
Mn3069     Mn  0.57020882  0.00166665  0.74587655     1.10700
C3070       C  0.58770753  0.56122101  0.79415039     0.99900
C3071       C  0.58308927  0.92742432  0.78973540     1.00000
N3072       N  0.94126868  0.96181502  0.76442827    -0.05300
N3073       N  0.91441980  0.94421969  0.76840560    -0.60700
N3074       N  0.96469463  0.53565112  0.78073169    -0.04600
N3075       N  0.95515066  0.55341363  0.79569483    -0.57400
N3076       N  0.94159728  0.53664207  0.76693895    -0.05900
N3077       N  0.91602056  0.55514831  0.77252753    -0.60300
N3078       N  0.96276545  0.96085212  0.77901978    -0.04900
N3079       N  0.95027090  0.94270578  0.79324700    -0.57400
Mn3080     Mn  0.94255284  0.00069076  0.74248342     1.20200
Mn3081     Mn  0.50429745  0.99756140  0.78122590     1.10100
Cl3082     Cl  0.50647123  0.00082795  0.74439021    -0.85400
C3083       C  0.92010839  0.93226586  0.78641651     0.96900
C3084       C  0.92470221  0.56560453  0.79052371     0.96700
N3085       N  0.76534686  0.63063934  0.09465553    -0.36100
N3086       N  0.82031678  0.62379836  0.12248935    -0.56600
N3087       N  0.77264913  0.62040140  0.15407461    -0.36000
N3088       N  0.71757262  0.62455008  0.12550518    -0.56600
C3089       C  0.79154603  0.62885839  0.08246347     0.27500
C3090       C  0.73701036  0.62820651  0.08389388     0.27500
C3091       C  0.80104238  0.60934031  0.16306453     0.27500
C3092       C  0.74623256  0.61098876  0.16499092     0.27500
C3093       C  0.83706036  0.63582672  0.10706602     0.36100
C3094       C  0.84119319  0.62688850  0.13789145     0.36200
C3095       C  0.69593062  0.63158804  0.11082579     0.36100
C3096       C  0.69975539  0.62649268  0.14201531     0.36200
C3097       C  0.77979901  0.62480323  0.06364990    -0.21300
C3098       C  0.74529424  0.62473821  0.06453597    -0.21300
C3099       C  0.79258629  0.59335924  0.18014747    -0.21300
C3100       C  0.75806638  0.59459346  0.18143816    -0.21300
C3101       C  0.86864566  0.64659874  0.11276374    -0.22400
C3102       C  0.87135971  0.64060023  0.13227315    -0.22400
C3103       C  0.66410508  0.63731138  0.11802612    -0.22400
C3104       C  0.66648524  0.63401974  0.13772333    -0.22400
C3105       C  0.82528141  0.63504240  0.08767814    -0.17700
C3106       C  0.70414821  0.63267477  0.09091299    -0.17700
C3107       C  0.71178200  0.61701368  0.16057198    -0.17700
C3108       C  0.83435457  0.61491524  0.15664794    -0.17700
H3109       H  0.79450023  0.62361188  0.05055537     0.15200
H3110       H  0.72830681  0.62331553  0.05226024     0.15200
H3111       H  0.80952117  0.58212288  0.19064224     0.15200
H3112       H  0.74336017  0.58431372  0.19311436     0.15200
H3113       H  0.88795677  0.65726751  0.10376877     0.13500
H3114       H  0.89304543  0.64566018  0.14130451     0.13500
H3115       H  0.64137460  0.64287541  0.10993458     0.13500
H3116       H  0.64577154  0.63620815  0.14766290     0.13500
H3117       H  0.76678351  0.63826099  0.10893824     0.26700
H3118       H  0.77139430  0.63594152  0.14203099     0.26700
N3119       N  0.76188485  0.87006348  0.09265891    -0.36100
N3120       N  0.81332435  0.88306404  0.12209492    -0.56600
N3121       N  0.76192360  0.88568370  0.15171638    -0.36000
N3122       N  0.71063640  0.87490861  0.12143728    -0.56600
C3123       C  0.78893265  0.87363489  0.08124126     0.27500
C3124       C  0.73441879  0.87014362  0.08100866     0.27500
C3125       C  0.78855144  0.89819321  0.16163967     0.27500
C3126       C  0.73350260  0.89529861  0.16089714     0.27500
C3127       C  0.83317384  0.87443176  0.10711137     0.36100
C3128       C  0.83344066  0.88431292  0.13799468     0.36200
C3129       C  0.69216415  0.86214216  0.10678841     0.36100
C3130       C  0.69213654  0.87168326  0.13761021     0.36200
C3131       C  0.77865487  0.87604346  0.06203265    -0.21300
C3132       C  0.74414801  0.87423912  0.06190390    -0.21300
C3133       C  0.77683131  0.91492040  0.17774400    -0.21300
C3134       C  0.74223755  0.91354991  0.17710147    -0.21300
C3135       C  0.86606810  0.87078557  0.11346708    -0.22400
C3136       C  0.86631097  0.87740081  0.13291359    -0.22400
C3137       C  0.66182729  0.85058180  0.11371588    -0.22400
C3138       C  0.66178702  0.85669301  0.13325554    -0.22400
C3139       C  0.82255647  0.87065039  0.08758039    -0.17700
C3140       C  0.70140911  0.86293324  0.08705691    -0.17700
C3141       C  0.70004062  0.88673500  0.15547232    -0.17700
C3142       C  0.82308035  0.89449029  0.15664601    -0.17700
H3143       H  0.79440095  0.87798153  0.04938338     0.15200
H3144       H  0.72817862  0.87442966  0.04914113     0.15200
H3145       H  0.79156372  0.92723485  0.18875851     0.15200
H3146       H  0.72546462  0.92452688  0.18752499     0.15200
H3147       H  0.88782767  0.86461182  0.10491367     0.13500
H3148       H  0.88838313  0.87738542  0.14212661     0.13500
H3149       H  0.64156326  0.83954343  0.10549962     0.13500
H3150       H  0.64135308  0.85165132  0.14306092     0.13500
H3151       H  0.76273195  0.86283273  0.10709709     0.26700
H3152       H  0.76315351  0.86922740  0.14023072     0.26700
C3153       C  0.61555965  0.56535444  0.80845820    -0.04800
C3154       C  0.61625991  0.59303727  0.82075061    -0.01900
C3155       C  0.64406093  0.59827328  0.83318714     0.03100
C3156       C  0.67038828  0.57459451  0.83444661    -0.04800
C3157       C  0.66911814  0.54631762  0.82257485    -0.01900
C3158       C  0.64250752  0.54227505  0.80920934     0.03100
C3159       C  0.58865165  0.61652766  0.82030376     0.37700
C3160       C  0.69518056  0.52119420  0.82412184     0.37700
C3161       C  0.64326799  0.51421504  0.79621425     0.36100
C3162       C  0.64569108  0.62825927  0.84460035     0.36100
N3163       N  0.64454912  0.49200629  0.78574788    -0.38700
N3164       N  0.64694381  0.65216836  0.85371321    -0.38700
N3165       N  0.71594296  0.50114618  0.82521510    -0.38100
N3166       N  0.56652985  0.63516948  0.82001930    -0.38100
C3167       C  0.84721667  0.58672943  0.83243638    -0.04800
C3168       C  0.86619261  0.55717033  0.83377857    -0.01900
C3169       C  0.89235201  0.55095490  0.82064708     0.03100
C3170       C  0.89880042  0.57347590  0.80530435    -0.04800
C3171       C  0.87968900  0.60290431  0.80384648    -0.01900
C3172       C  0.85465216  0.60996628  0.81767219     0.03100
C3173       C  0.85881326  0.53302130  0.84881654     0.37700
C3174       C  0.88625246  0.62621073  0.78828692     0.37700
C3175       C  0.83657061  0.64114743  0.81672379     0.36100
C3176       C  0.91215718  0.52092954  0.82290682     0.36100
N3177       N  0.82198527  0.66594471  0.81588612    -0.38700
N3178       N  0.92794412  0.49703215  0.82490976    -0.38700
N3179       N  0.89150880  0.64473269  0.77582902    -0.38100
N3180       N  0.85299691  0.51377334  0.86080345    -0.38100
C3181       C  0.66275706  0.90465874  0.83032295    -0.04800
C3182       C  0.65590477  0.88304773  0.81476891    -0.01900
C3183       C  0.62911530  0.88992359  0.80182571     0.03100
C3184       C  0.60832422  0.91778710  0.80471528    -0.04800
C3185       C  0.61433256  0.93858658  0.82082018    -0.01900
C3186       C  0.64178490  0.93235858  0.83332028     0.03100
C3187       C  0.67705014  0.85426407  0.81179370     0.37700
C3188       C  0.59320441  0.96726627  0.82424266     0.37700
C3189       C  0.64913717  0.95512492  0.84897976     0.36100
C3190       C  0.62291308  0.86831252  0.78549543     0.36100
N3191       N  0.65504565  0.97337029  0.86139699    -0.38700
N3192       N  0.61797861  0.85104529  0.77247360    -0.38700
N3193       N  0.57638371  0.99009503  0.82711241    -0.38100
N3194       N  0.69427150  0.83157816  0.80932958    -0.38100
C3195       C  0.89174628  0.92521657  0.79963153    -0.04800
C3196       C  0.86630094  0.94924305  0.80260044    -0.01900
C3197       C  0.84117983  0.94374973  0.81649414     0.03100
C3198       C  0.83930388  0.91296170  0.82620644    -0.04800
C3199       C  0.86355001  0.88819273  0.82232244    -0.01900
C3200       C  0.89015850  0.89467491  0.80950109     0.03100
C3201       C  0.86549318  0.97963884  0.79132033     0.37700
C3202       C  0.86126285  0.85602671  0.83166116     0.37700
C3203       C  0.91552845  0.86960388  0.80608275     0.36100
C3204       C  0.81759072  0.97004364  0.82098771     0.36100
N3205       N  0.93577693  0.84962087  0.80331235    -0.38700
N3206       N  0.79872573  0.99099102  0.82446176    -0.38700
N3207       N  0.85951152  0.83036972  0.83911687    -0.38100
N3208       N  0.86403862  0.00372012  0.78219231    -0.38100
C3209       C  0.62220458  0.66764071  0.05441797    -0.04800
C3210       C  0.64062764  0.68942725  0.06666237    -0.01900
C3211       C  0.66903766  0.67812763  0.07694540     0.03100
C3212       C  0.67754542  0.64433834  0.07704814    -0.04800
C3213       C  0.65897106  0.62211511  0.06556741    -0.01900
C3214       C  0.63220948  0.63384504  0.05369528     0.03100
C3215       C  0.62976792  0.72318254  0.07007402     0.37700
C3216       C  0.66669222  0.58704232  0.06661981     0.37700
C3217       C  0.61411613  0.61052370  0.04167618     0.36100
C3218       C  0.68883361  0.70120440  0.08835590     0.36100
N3219       N  0.59993840  0.59167132  0.03210302    -0.38700
N3220       N  0.70454806  0.71948678  0.09749534    -0.38700
N3221       N  0.67284080  0.55906862  0.06766484    -0.38100
N3222       N  0.62101797  0.74977420  0.07364387    -0.38100
C3223       C  0.90311298  0.66380918  0.04875031    -0.04800
C3224       C  0.90476766  0.63266844  0.05802943    -0.01900
C3225       C  0.87750849  0.62163704  0.06912588     0.03100
C3226       C  0.84976971  0.64284687  0.07213570    -0.04800
C3227       C  0.84758795  0.67337152  0.06209299    -0.01900
C3228       C  0.87365233  0.68307691  0.04973982     0.03100
C3229       C  0.93544838  0.61325467  0.05750301     0.37700
C3230       C  0.81971507  0.69578707  0.06543225     0.37700
C3231       C  0.87042423  0.71308647  0.03818684     0.36100
C3232       C  0.87880922  0.58933884  0.07842383     0.36100
N3233       N  0.86788213  0.73693812  0.02890680    -0.38700
N3234       N  0.87986875  0.56359654  0.08585376    -0.38700
N3235       N  0.79758742  0.71374723  0.06816784    -0.38100
N3236       N  0.96006326  0.59797225  0.05729361    -0.38100
C3237       C  0.62103773  0.83381435  0.04851647    -0.04800
C3238       C  0.62018118  0.86516508  0.05738382    -0.01900
C3239       C  0.64773414  0.87586401  0.06868472     0.03100
C3240       C  0.67531301  0.85443129  0.07214358    -0.04800
C3241       C  0.67680992  0.82379516  0.06243302    -0.01900
C3242       C  0.65030824  0.81417523  0.05006621     0.03100
C3243       C  0.59025472  0.88557261  0.05580904     0.37700
C3244       C  0.70493085  0.80154238  0.06582862     0.37700
C3245       C  0.65317792  0.78414598  0.03877630     0.36100
C3246       C  0.64754521  0.90870456  0.07701336     0.36100
N3247       N  0.65546116  0.76030281  0.02966979    -0.38700
N3248       N  0.64749503  0.93506676  0.08345871    -0.38700
N3249       N  0.72740316  0.78388251  0.06864436    -0.38100
N3250       N  0.56625849  0.90171383  0.05465082    -0.38100
C3251       C  0.90139126  0.83129690  0.05165033    -0.04800
C3252       C  0.88261472  0.81065983  0.06435795    -0.01900
C3253       C  0.85477699  0.82333018  0.07426490     0.03100
C3254       C  0.84752946  0.85737278  0.07361663    -0.04800
C3255       C  0.86594744  0.87831667  0.06131318    -0.01900
C3256       C  0.89207256  0.86520973  0.04984941     0.03100
C3257       C  0.89254002  0.77678555  0.06859136     0.37700
C3258       C  0.85837472  0.91344673  0.06082426     0.39300
C3259       C  0.91028495  0.88732760  0.03713863     0.36100
C3260       C  0.83385602  0.80137321  0.08572756     0.36100
N3261       N  0.92461264  0.90521700  0.02702325    -0.38700
N3262       N  0.81695235  0.78398981  0.09473686    -0.38700
N3263       N  0.85228589  0.94147265  0.06048788    -0.38100
N3264       N  0.90052390  0.75012084  0.07281910    -0.38100
C3265       C  0.67508382  0.85316038  0.92672077    -0.04800
C3266       C  0.67297175  0.81927595  0.93165748    -0.01900
C3267       C  0.64714045  0.80808217  0.94378113     0.03100
C3268       C  0.62166708  0.83011550  0.94973316    -0.04800
C3269       C  0.62458810  0.86426600  0.94555003    -0.01900
C3270       C  0.65164358  0.87580093  0.93436843     0.03100
C3271       C  0.69654560  0.79568463  0.92364102     0.37700
C3272       C  0.59887353  0.88734393  0.95168565     0.37700
C3273       C  0.65456342  0.91080590  0.92989831     0.36100
C3274       C  0.64725774  0.77400655  0.95057018     0.36100
N3275       N  0.65691787  0.93869183  0.92625906    -0.38700
N3276       N  0.64753629  0.74703226  0.95630644    -0.38700
N3277       N  0.57835734  0.90583339  0.95649249    -0.38100
N3278       N  0.71529963  0.77683356  0.91723971    -0.38100
C3279       C  0.90532180  0.83398315  0.94222323    -0.04800
C3280       C  0.88771327  0.86241614  0.94890401    -0.01900
C3281       C  0.86130508  0.87646127  0.93770750     0.03100
C3282       C  0.85040098  0.86098961  0.92056931    -0.04800
C3283       C  0.86742286  0.83274929  0.91389862    -0.01900
C3284       C  0.89565233  0.82034693  0.92400188     0.03100
C3285       C  0.89592932  0.87734231  0.96737686     0.37700
C3286       C  0.85530479  0.81589384  0.89666721     0.37700
C3287       C  0.91473990  0.79401926  0.91496466     0.36100
C3288       C  0.84510111  0.90683726  0.94380289     0.36100
N3289       N  0.92979206  0.77321472  0.90747731    -0.38700
N3290       N  0.83215001  0.93111590  0.94855339    -0.38700
N3291       N  0.84541987  0.80234726  0.88305757    -0.38100
N3292       N  0.90208193  0.88939360  0.98214734    -0.38100
C3293       C  0.61681919  0.65665122  0.94606912    -0.04800
C3294       C  0.62887580  0.62508495  0.95250818    -0.01900
C3295       C  0.65555442  0.60921930  0.94284470     0.03100
C3296       C  0.67056393  0.62441528  0.92677146    -0.04800
C3297       C  0.65885403  0.65544899  0.92017693    -0.01900
C3298       C  0.63183331  0.67124363  0.92941743     0.03100
C3299       C  0.61380629  0.60802806  0.96879557     0.37700
C3300       C  0.67524082  0.67142593  0.90388103     0.37700
C3301       C  0.61983122  0.70237066  0.92128191     0.36100
C3302       C  0.66775547  0.57714036  0.94940819     0.36100
N3303       N  0.61052810  0.72706362  0.91449761    -0.38700
N3304       N  0.67753140  0.55156686  0.95462979    -0.38700
N3305       N  0.68858923  0.68408772  0.89100109    -0.38100
N3306       N  0.60194725  0.59412387  0.98174020    -0.38100
C3307       C  0.84590400  0.63537804  0.92944350    -0.04800
C3308       C  0.84979256  0.66996394  0.93064199    -0.01900
C3309       C  0.87579755  0.68345617  0.94201192     0.03100
C3310       C  0.89969719  0.66247476  0.95123529    -0.04800
C3311       C  0.89447763  0.62777435  0.95099813    -0.01900
C3312       C  0.86737032  0.61438116  0.94032102     0.03100
C3313       C  0.82714488  0.69166791  0.91989812     0.37700
C3314       C  0.91740968  0.60557039  0.96111961     0.37700
C3315       C  0.86198823  0.57890412  0.94007063     0.36100
C3316       C  0.87684765  0.71896682  0.94489084     0.36100
N3317       N  0.85763533  0.55060779  0.93992120    -0.38700
N3318       N  0.87713317  0.74724054  0.94742654    -0.38700
N3319       N  0.93558519  0.58775565  0.96922701    -0.38100
N3320       N  0.80891524  0.70874766  0.91130659    -0.38100
C3321       C  0.85008474  0.90587846  0.17061025    -0.04800
C3322       C  0.85578137  0.93997854  0.17305943    -0.01900
C3323       C  0.88074548  0.95118767  0.18608374     0.03100
C3324       C  0.90323632  0.92859385  0.19545710    -0.04800
C3325       C  0.89865768  0.89430041  0.19207437    -0.01900
C3326       C  0.87145646  0.88306399  0.18039184     0.03100
C3327       C  0.83573228  0.96377926  0.16207237     0.37700
C3328       C  0.92106140  0.87030235  0.20107267     0.37700
C3329       C  0.86536123  0.84790016  0.17838930     0.36100
C3330       C  0.88185470  0.98624496  0.19019110     0.36100
N3331       N  0.86038875  0.81985272  0.17678028    -0.38700
N3332       N  0.88122895  0.51413375  0.19378282    -0.38700
N3333       N  0.93901401  0.85101897  0.20810774    -0.38100
N3334       N  0.81972142  0.98265468  0.15329569    -0.38100
C3335       C  0.67102103  0.89623639  0.16822159    -0.04800
C3336       C  0.66699944  0.88174759  0.18673545    -0.01900
C3337       C  0.64057410  0.89218873  0.19886559     0.03100
C3338       C  0.61633488  0.91520754  0.19204907    -0.04800
C3339       C  0.61846312  0.92715847  0.17286592    -0.01900
C3340       C  0.64642222  0.91901705  0.16135209     0.03100
C3341       C  0.69016237  0.85621586  0.19331611     0.37700
C3342       C  0.59256439  0.94911509  0.16525058     0.37700
C3343       C  0.65057539  0.93524916  0.14271703     0.36100
C3344       C  0.63913424  0.88020371  0.21865666     0.36100
N3345       N  0.65403358  0.94826315  0.12788978    -0.38700
N3346       N  0.63840347  0.87078104  0.23450596    -0.38700
N3347       N  0.57206326  0.96675405  0.15913582    -0.38100
N3348       N  0.70864352  0.83575156  0.19845953    -0.38100
C3349       C  0.91870380  0.59198993  0.19495295    -0.04800
C3350       C  0.89653508  0.61816805  0.19938726    -0.01900
C3351       C  0.86984201  0.62647955  0.18656680     0.03100
C3352       C  0.86381256  0.60733950  0.16982750    -0.04800
C3353       C  0.88697297  0.58202166  0.16503240    -0.01900
C3354       C  0.91494274  0.57533586  0.17718535     0.03100
C3355       C  0.90065848  0.63596860  0.21740697     0.37700
C3356       C  0.88138952  0.56187465  0.14799240     0.37700
C3357       C  0.93941260  0.55042748  0.17176648     0.36100
C3358       C  0.84874027  0.65493293  0.19044276     0.36100
N3359       N  0.95908119  0.53071458  0.16745528    -0.38700
N3360       N  0.83198096  0.67780002  0.19332485    -0.38700
N3361       N  0.87699468  0.54563675  0.13446092    -0.38100
N3362       N  0.90388418  0.65020538  0.23179477    -0.38100
C3363       C  0.68567416  0.60559444  0.17448671    -0.04800
C3364       C  0.66676135  0.62816449  0.18560044    -0.01900
C3365       C  0.63916602  0.61694656  0.19665315     0.03100
C3366       C  0.63025744  0.58309344  0.19648981    -0.04800
C3367       C  0.64955005  0.56080851  0.18523867    -0.01900
C3368       C  0.67691340  0.57196206  0.17438936     0.03100
C3369       C  0.67556182  0.66292312  0.18545355     0.37700
C3370       C  0.64215845  0.52580248  0.18499458     0.37700
C3371       C  0.69627549  0.54862629  0.16298007     0.36100
C3372       C  0.62132467  0.63990245  0.20893936     0.36100
N3373       N  0.71191822  0.53011940  0.15401327    -0.38700
N3374       N  0.60727975  0.65824883  0.21884280    -0.38700
N3375       N  0.63747799  0.49763659  0.18493689    -0.38100
N3376       N  0.68246950  0.69071015  0.18529543    -0.38100
C3377       C  0.61304534  0.67242645  0.67777077    -0.04800
C3378       C  0.57883223  0.66447450  0.67647285    -0.01900
C3379       C  0.56711328  0.63510830  0.68492561     0.03100
C3380       C  0.58818817  0.61627797  0.69769767    -0.04800
C3381       C  0.62152460  0.62733068  0.70109099    -0.01900
C3382       C  0.63420110  0.65457986  0.69053700     0.03100
C3383       C  0.55668740  0.68474106  0.66439566     0.37700
C3384       C  0.64387401  0.60944715  0.71415818     0.37700
C3385       C  0.66926388  0.66364009  0.69224088     0.36100
C3386       C  0.53480571  0.62307264  0.67827616     0.36100
N3387       N  0.69718969  0.67106454  0.69360532    -0.38700
N3388       N  0.50970272  0.61342467  0.67199624    -0.38700
N3389       N  0.66189509  0.59532909  0.72456338    -0.38100
N3390       N  0.53974494  0.70097972  0.65447061    -0.38100
C3391       C  0.62349667  0.84141463  0.67481452    -0.04800
C3392       C  0.59036972  0.84157417  0.68202402    -0.01900
C3393       C  0.57877274  0.86852913  0.69294895     0.03100
C3394       C  0.59907816  0.89664361  0.69541211    -0.04800
C3395       C  0.63298083  0.89554983  0.68961208    -0.01900
C3396       C  0.64531464  0.86769214  0.67958647     0.03100
C3397       C  0.56781637  0.81446266  0.67775628     0.37700
C3398       C  0.65491022  0.92330527  0.69351528     0.37700
C3399       C  0.68011502  0.86636165  0.67365067     0.36100
C3400       C  0.54657712  0.86678315  0.70254545     0.36100
N3401       N  0.70786810  0.86515101  0.66889544    -0.38700
N3402       N  0.52119784  0.86547268  0.71053415    -0.38700
N3403       N  0.67251148  0.94535801  0.69669819    -0.38100
N3404       N  0.54994078  0.79270674  0.67441383    -0.38100
C3405       C  0.90526080  0.66423865  0.66729668    -0.04800
C3406       C  0.93493754  0.66592155  0.67868192    -0.01900
C3407       C  0.94276660  0.64054217  0.69206681     0.03100
C3408       C  0.92307572  0.61172526  0.69279063    -0.04800
C3409       C  0.89263484  0.61051828  0.68224779    -0.01900
C3410       C  0.88333550  0.63708961  0.66987796     0.03100
C3411       C  0.95795871  0.69331196  0.67628915     0.37700
C3412       C  0.87150739  0.58149073  0.68358927     0.37700
C3413       C  0.85172279  0.63604954  0.65933317     0.36100
C3414       C  0.97076322  0.64423592  0.70545425     0.36100
N3415       N  0.82663288  0.63524117  0.65078847    -0.38700
N3416       N  0.49286319  0.64719257  0.71628266    -0.38700
N3417       N  0.85460647  0.55834321  0.68466155    -0.38100
N3418       N  0.47591970  0.71550194  0.67443088    -0.38100
C3419       C  0.91109999  0.83569453  0.66742542    -0.04800
C3420       C  0.94474105  0.84601348  0.66736622    -0.01900
C3421       C  0.95399885  0.87577106  0.67637787     0.03100
C3422       C  0.93087827  0.89305269  0.68837943    -0.04800
C3423       C  0.89767141  0.88061096  0.68986028    -0.01900
C3424       C  0.88759635  0.85286891  0.67879900     0.03100
C3425       C  0.96940579  0.82708838  0.65661735     0.37700
C3426       C  0.87301124  0.89733718  0.70166717     0.37700
C3427       C  0.85277416  0.84261014  0.67853347     0.36100
C3428       C  0.98654551  0.88934235  0.67154385     0.36100
N3429       N  0.82500296  0.83436946  0.67824219    -0.38700
N3430       N  0.01215584  0.90013177  0.66695109    -0.38700
N3431       N  0.85318983  0.91051862  0.71108532    -0.38100
N3432       N  0.98884590  0.81197985  0.64795671    -0.38100
C3433       C  0.83398376  0.61465115  0.54605712    -0.04800
C3434       C  0.81214880  0.63545551  0.55666144    -0.01900
C3435       C  0.82505470  0.66031611  0.56877254     0.03100
C3436       C  0.85987036  0.66617227  0.56966942    -0.04800
C3437       C  0.88150263  0.64803113  0.55754221    -0.01900
C3438       C  0.86866761  0.62230011  0.54576424     0.03100
C3439       C  0.77607043  0.63279766  0.55432971     0.37700
C3440       C  0.91701240  0.65566152  0.55740568     0.37700
C3441       C  0.89129610  0.60395477  0.53346471     0.36100
C3442       C  0.80230947  0.68024255  0.58025685     0.36100
N3443       N  0.90950032  0.58974414  0.52349434    -0.38700
N3444       N  0.78422057  0.69632792  0.58928648    -0.38700
N3445       N  0.94536103  0.66173678  0.55736324    -0.38100
N3446       N  0.74729118  0.63133431  0.55228489    -0.38100
C3447       C  0.83747062  0.89826714  0.55243976    -0.04800
C3448       C  0.86491983  0.87955645  0.54526321    -0.01900
C3449       C  0.87616210  0.85074093  0.55517558     0.03100
C3450       C  0.86064658  0.84055610  0.57247015    -0.04800
C3451       C  0.83390211  0.85925099  0.57995313    -0.01900
C3452       C  0.82272662  0.88807566  0.57034783     0.03100
C3453       C  0.88284596  0.89031176  0.52818592     0.37700
C3454       C  0.81821879  0.84912006  0.59802580     0.37700
C3455       C  0.79629249  0.90700513  0.57962374     0.36100
C3456       C  0.90425396  0.83179755  0.54784158     0.36100
N3457       N  0.77516515  0.92160402  0.58724104    -0.38700
N3458       N  0.92653671  0.81644741  0.54202970    -0.38700
N3459       N  0.80603261  0.84132862  0.61251257    -0.38100
N3460       N  0.89761124  0.89884077  0.51468766    -0.38100
C3461       C  0.66663532  0.60560252  0.55777275    -0.04800
C3462       C  0.68230539  0.61062182  0.57610960    -0.01900
C3463       C  0.67719523  0.64012372  0.58619338     0.03100
C3464       C  0.65142128  0.66204470  0.58044657    -0.04800
C3465       C  0.63242481  0.65521622  0.56353975    -0.01900
C3466       C  0.64120382  0.62806685  0.55164081     0.03100
C3467       C  0.70287291  0.58515183  0.58533468     0.37700
C3468       C  0.60383074  0.67590636  0.55851010     0.37700
C3469       C  0.62442206  0.62385095  0.53311241     0.36100
C3470       C  0.69908991  0.64820511  0.60242786     0.36100
N3471       N  0.61109679  0.62067590  0.51827517    -0.38700
N3472       N  0.71676628  0.65481965  0.61520138    -0.38700
N3473       N  0.58076828  0.69216809  0.55456528    -0.38100
N3474       N  0.71900996  0.56485540  0.59284778    -0.38100
C3475       C  0.66310082  0.83519241  0.57628479    -0.04800
C3476       C  0.69649052  0.84179951  0.57096287    -0.01900
C3477       C  0.70320144  0.86753970  0.55783416     0.03100
C3478       C  0.67721798  0.88919249  0.55177894    -0.04800
C3479       C  0.64357485  0.88113511  0.55591233    -0.01900
C3480       C  0.63652738  0.85336112  0.56761445     0.03100
C3481       C  0.72396650  0.82246784  0.57917075     0.37700
C3482       C  0.61630349  0.90193880  0.54889285     0.37700
C3483       C  0.60203712  0.84438268  0.57157000     0.36100
C3484       C  0.73629459  0.87033043  0.54944718     0.36100
N3485       N  0.57455760  0.83720476  0.57479254    -0.38700
N3486       N  0.76224273  0.87194939  0.54213525    -0.38700
N3487       N  0.59445344  0.91846038  0.54330027    -0.38100
N3488       N  0.74587135  0.80700516  0.58567118    -0.38100
C3489       C  0.61921555  0.65643057  0.33442402    -0.04800
C3490       C  0.63563837  0.65428228  0.31637598    -0.01900
C3491       C  0.63021255  0.62672865  0.30413887     0.03100
C3492       C  0.61027133  0.59983929  0.31033830    -0.04800
C3493       C  0.59655314  0.60054956  0.32910736    -0.01900
C3494       C  0.59978082  0.62910969  0.34074601     0.03100
C3495       C  0.65805805  0.68050296  0.31035450     0.37700
C3496       C  0.57648899  0.57290317  0.33577141     0.37700
C3497       C  0.58126079  0.63110848  0.35872573     0.36100
C3498       C  0.64360308  0.62688939  0.28466744     0.36100
N3499       N  0.06645269  0.63279815  0.37304292    -0.38700
N3500       N  0.65403384  0.62719409  0.26906747    -0.38700
N3501       N  0.56033406  0.55095670  0.34106619    -0.38100
N3502       N  0.67607215  0.70141339  0.30567178    -0.38100
C3503       C  0.60823158  0.88539550  0.30070972    -0.04800
C3504       C  0.60581947  0.85226273  0.29421274    -0.01900
C3505       C  0.61576021  0.82588553  0.30649567     0.03100
C3506       C  0.62225290  0.83206626  0.32633277    -0.04800
C3507       C  0.63497089  0.86427116  0.33027270    -0.01900
C3508       C  0.62646499  0.89124982  0.31793699     0.03100
C3509       C  0.59445372  0.84504081  0.27467570     0.37700
C3510       C  0.65887388  0.86910136  0.34596535     0.37700
C3511       C  0.63586358  0.92459253  0.32322393     0.36100
C3512       C  0.62720254  0.79547764  0.29765948     0.36100
N3513       N  0.64367546  0.95115188  0.32745630    -0.38700
N3514       N  0.63683479  0.77155678  0.29038541    -0.38700
N3515       N  0.67804989  0.87281490  0.35844274    -0.38100
N3516       N  0.58517548  0.83896942  0.25917222    -0.38100
C3517       C  0.64355843  0.66994238  0.43217049    -0.04800
C3518       C  0.61810864  0.64816689  0.43828477    -0.01900
C3519       C  0.62638681  0.62057387  0.44999179     0.03100
C3520       C  0.66022177  0.61451332  0.45507025    -0.04800
C3521       C  0.68488937  0.63838605  0.45072138    -0.01900
C3522       C  0.67664311  0.66590640  0.43910254     0.03100
C3523       C  0.58385394  0.65323320  0.43160437     0.37700
C3524       C  0.71876308  0.63474569  0.45830616     0.37700
C3525       C  0.70254229  0.68892216  0.43319017     0.36100
C3526       C  0.60043069  0.59777335  0.45601901     0.36100
N3527       N  0.72312507  0.70723278  0.42833505    -0.38700
N3528       N  0.57962291  0.57980823  0.46099923    -0.38700
N3529       N  0.74567433  0.63221601  0.46456486    -0.38100
N3530       N  0.55658208  0.65731627  0.42618699    -0.38100
C3531       C  0.63291467  0.84080929  0.42604054    -0.04800
C3532       C  0.61004540  0.86028743  0.43659750    -0.01900
C3533       C  0.62182826  0.88673765  0.44821361     0.03100
C3534       C  0.65673896  0.89250968  0.45019655    -0.04800
C3535       C  0.67945545  0.87102843  0.44072872    -0.01900
C3536       C  0.66761093  0.84648631  0.42809503     0.03100
C3537       C  0.57447669  0.85338177  0.43519097     0.37700
C3538       C  0.71530437  0.87323287  0.44429203     0.37700
C3539       C  0.69133000  0.82737159  0.41678372     0.36100
C3540       C  0.59795249  0.90884300  0.45720716     0.36100
N3541       N  0.71018279  0.81241909  0.40761282    -0.38700
N3542       N  0.57876821  0.92658469  0.46422763    -0.38700
N3543       N  0.74392204  0.87427424  0.44710877    -0.38100
N3544       N  0.54609440  0.84772883  0.43403791    -0.38100
C3545       C  0.94156597  0.61490632  0.30884478    -0.04800
C3546       C  0.90667427  0.62138884  0.30994489    -0.01900
C3547       C  0.89471778  0.64911249  0.32042727     0.03100
C3548       C  0.91737372  0.67059234  0.32992181    -0.04800
C3549       C  0.95197863  0.66395117  0.32910899    -0.01900
C3550       C  0.96397346  0.63654068  0.31867219     0.03100
C3551       C  0.88298545  0.60039076  0.29986359     0.37700
C3552       C  0.97534285  0.68481625  0.33967991     0.37700
C3553       C  0.99982936  0.63092240  0.31823595     0.36100
C3554       C  0.85899328  0.65559513  0.32158634     0.36100
N3555       N  0.52854583  0.62721045  0.31769725    -0.38700
N3556       N  0.83049937  0.66086261  0.32257277    -0.38700
N3557       N  0.99397180  0.70130672  0.34815846    -0.38100
N3558       N  0.86388727  0.58374354  0.29185272    -0.38100
C3559       C  0.94359889  0.90131981  0.31338194    -0.04800
C3560       C  0.90920240  0.89452505  0.31611067    -0.01900
C3561       C  0.89926949  0.86679066  0.32736486     0.03100
C3562       C  0.92353610  0.84554220  0.33598962    -0.04800
C3563       C  0.95776613  0.85358737  0.33440158    -0.01900
C3564       C  0.96774406  0.88133036  0.32331407     0.03100
C3565       C  0.88396323  0.91515105  0.30675955     0.37700
C3566       C  0.98278547  0.83339724  0.34437594     0.37700
C3567       C  0.00315024  0.88942044  0.32241943     0.36100
C3568       C  0.86394267  0.85972494  0.32984098     0.36100
N3569       N  0.53145451  0.89559924  0.32196489    -0.38700
N3570       N  0.83573354  0.85407517  0.33179612    -0.38700
N3571       N  0.00277799  0.81743606  0.35237803    -0.38100
N3572       N  0.86373960  0.93164866  0.29935936    -0.38100
C3573       C  0.83895124  0.66548225  0.41913728    -0.04800
C3574       C  0.81400636  0.64424439  0.41193853    -0.01900
C3575       C  0.80330560  0.61693415  0.42303013     0.03100
C3576       C  0.81742819  0.61052963  0.44178340    -0.04800
C3577       C  0.84124401  0.63318674  0.44932572    -0.01900
C3578       C  0.85207024  0.66031775  0.43797109     0.03100
C3579       C  0.79898411  0.65084162  0.39303169     0.37700
C3580       C  0.85381149  0.62970965  0.46902023     0.37700
C3581       C  0.87672784  0.68316064  0.44566480     0.36100
C3582       C  0.77765465  0.59579234  0.41468561     0.36100
N3583       N  0.89617978  0.70165603  0.45174619    -0.38700
N3584       N  0.75699448  0.57931115  0.40794052    -0.38700
N3585       N  0.86377969  0.62727853  0.48476901    -0.38100
N3586       N  0.78696199  0.65611359  0.37799818    -0.38100
C3587       C  0.84522796  0.83896397  0.42252218    -0.04800
C3588       C  0.82779807  0.86513858  0.41321523    -0.01900
C3589       C  0.81847541  0.89341289  0.42367922     0.03100
C3590       C  0.82340659  0.89452793  0.44404031    -0.04800
C3591       C  0.83886789  0.86725901  0.45354873    -0.01900
C3592       C  0.85108039  0.84026538  0.44270991     0.03100
C3593       C  0.81941038  0.86292848  0.39272908     0.37700
C3594       C  0.84021585  0.86576452  0.47451338     0.37700
C3595       C  0.86996415  0.81399470  0.45226043     0.36100
C3596       C  0.80482793  0.92170090  0.41315037     0.36100
N3597       N  0.88510183  0.79294609  0.45974866    -0.38700
N3598       N  0.79419521  0.94418745  0.40459597    -0.38700
N3599       N  0.84062383  0.86402063  0.49125073    -0.38100
N3600       N  0.81275866  0.86098214  0.37642318    -0.38100
loop_ 
_geom_bond_atom_site_label_1 
_geom_bond_atom_site_label_2 
_geom_bond_distance 
_geom_bond_site_symmetry_2 
_ccdc_geom_bond_type 
N1            C6   1.352       .  A
N1            C5   1.351       .  A
N1           H33   1.040       .  S
N2            C9   1.348       .  A
N2           C10   1.347       .  A
N3            C8   1.352       .  A
N3            C7   1.355       .  A
N3           H34   1.040       .  S
N4           C11   1.355       .  A
N4           C12   1.353       .  A
C5           C13   1.386       .  A
C5           C21   1.413       .  A
C6           C22   1.412       .  A
C6           C14   1.387       .  A
C7           C15   1.385       .  A
C7           C24   1.414       .  A
C8           C23   1.416       .  A
C8           C16   1.389       .  A
C9           C21   1.410       .  A
C9           C17   1.387       .  A
C10          C24   1.407       .  A
C10          C18   1.385       .  A
C11          C19   1.385       .  A
C11          C22   1.420       .  A
C12          C20   1.387       .  A
C12          C23   1.421       .  A
C13          C14   1.375       .  A
C13          H25   1.082       .  S
C14          H26   1.082       .  S
C15          C16   1.374       .  A
C15          H27   1.082       .  S
C16          H28   1.082       .  S
C17          C18   1.377       .  A
C17          H29   1.082       .  S
C18          H30   1.083       .  S
C19          C20   1.383       .  A
C19          H31   1.082       .  S
C20          H32   1.082       .  S
C21         C887   1.496       .  S
C22         C862   1.505       .  S
C23         C848   1.501       .  S
C24         C873   1.496       .  S
N35          C40   1.353       .  A
N35          C39   1.350       .  A
N35          H67   1.042       .  S
N36          C43   1.348       .  A
N36          C44   1.348       .  A
N37          C42   1.355       .  A
N37          C41   1.357       .  A
N37          H68   1.039       .  S
N38          C45   1.357       .  A
N38          C46   1.352       .  A
C39          C47   1.390       .  A
C39          C55   1.414       .  A
C40          C56   1.408       .  A
C40          C48   1.384       .  A
C41          C49   1.382       .  A
C41          C58   1.414       .  A
C42          C57   1.427       .  A
C42          C50   1.391       .  A
C43          C55   1.408       .  A
C43          C51   1.387       .  A
C44          C58   1.408       .  A
C44          C52   1.385       .  A
C45          C53   1.381       .  A
C45          C56   1.416       .  A
C46          C54   1.389       .  A
C46          C57   1.425       .  A
C47          C48   1.372       .  A
C47          H59   1.082       .  S
C48          H60   1.082       .  S
C49          C50   1.374       .  A
C49          H61   1.082       .  S
C50          H62   1.082       .  S
C51          C52   1.373       .  A
C51          H63   1.082       .  S
C52          H64   1.082       .  S
C53          C54   1.381       .  A
C53          H65   1.082       .  S
C54          H66   1.082       .  S
C55         C817   1.484       .  S
C56         C789   1.514       .  S
C57         C806   1.541       .  S
C58         C831   1.497       .  S
N69          N70   1.326       .  A
N69          N75   1.316       .  A
N69        Mn998   2.227       .  S
N70          C77   1.360       .  A
N71          N73   1.313       .  A
N71          N72   1.312       .  A
N71         Mn87   2.170       .  S
N72          C78   1.346       .  A
N73          N74   1.327       .  A
N73         Mn98   2.227       .  S
N74          C78   1.363       .  A
N75          N76   1.314       .  A
N75        Mn987   2.186       .  S
N76          C77   1.348       .  A
C77         C890   1.492       .  S
C78         C876   1.504       .  S
N79          N85   1.315       .  A
N79          N80   1.323       .  A
N79        Mn109   2.197       .  S
N80          C88   1.354       .  A
N81          N82   1.314       .  A
N81          N83   1.314       .  A
N81        Mn987   2.175       .  S
N82          C89   1.347       .  A
N83          N84   1.329       .  A
N83       Mn1009   2.234       .  S
N84          C89   1.362       .  A
N85          N86   1.314       .  A
N85         Mn87   2.186       .  S
N86          C88   1.349       .  A
Mn87        N975   2.186   1_545  S
Mn87        N981   2.175   1_545  S
Mn87       Cl111   2.501       .  S
C88         C820   1.475       .  S
C89         C834   1.496       .  S
N90          N91   1.327       .  A
N90          N96   1.315       .  A
N90         Mn98   2.229       .  S
N91          C99   1.361       .  A
N92          N94   1.312       .  A
N92          N93   1.309       .  A
N92       Mn1010   2.159       .  S
N93         C100   1.344       .  A
N94          N95   1.329       .  A
N94        Mn998   2.237       .  S
N95         C100   1.366       .  A
N96          N97   1.316       .  A
N96        Mn110   2.192       .  S
N97          C99   1.351       .  A
Mn98        N969   2.227   1_545  S
Mn98        N994   2.237   1_545  S
Mn98       Cl111   2.591       .  S
C99         C733   1.501       .  S
C100        C747   1.509       .  S
N101        N102   1.321       .  A
N101        N107   1.315       .  A
N101      Mn1009   2.193       .  S
N102        C112   1.354       .  A
N103        N104   1.308       .  A
N103        N105   1.312       .  A
N103       Mn110   2.161       .  S
N104        C113   1.344       .  A
N105        N106   1.329       .  A
N105       Mn109   2.226       .  S
N106        C113   1.363       .  A
N107        N108   1.315       .  A
N107      Mn1010   2.193       .  S
N108        C112   1.350       .  A
Mn109       N983   2.234   1_545  S
Mn109      N1001   2.193   1_545  S
Mn109      Cl111   2.592       .  S
Mn110       N992   2.159   1_545  S
Mn110      N1007   2.193   1_545  S
Mn110      Cl111   2.496       .  S
C112        C778   1.480       .  S
C113        C761   1.499       .  S
N114        C119   1.356       .  A
N114        C118   1.356       .  A
N114        H146   1.038       .  S
N115        C122   1.351       .  A
N115        C123   1.352       .  A
N116        C121   1.353       .  A
N116        C120   1.351       .  A
N116        H147   1.038       .  S
N117        C124   1.349       .  A
N117        C125   1.352       .  A
C118        C126   1.386       .  A
C118        C134   1.418       .  A
C119        C135   1.424       .  A
C119        C127   1.389       .  A
C120        C128   1.384       .  A
C120        C137   1.409       .  A
C121        C136   1.418       .  A
C121        C129   1.390       .  A
C122        C134   1.415       .  A
C122        C130   1.388       .  A
C123        C137   1.410       .  A
C123        C131   1.384       .  A
C124        C132   1.388       .  A
C124        C135   1.417       .  A
C125        C133   1.384       .  A
C125        C136   1.411       .  A
C126        C127   1.377       .  A
C126        H138   1.082       .  S
C127        H139   1.082       .  S
C128        C129   1.370       .  A
C128        H140   1.083       .  S
C129        H141   1.081       .  S
C130        C131   1.373       .  A
C130        H142   1.082       .  S
C131        H143   1.082       .  S
C132        C133   1.375       .  A
C132        H144   1.082       .  S
C133        H145   1.082       .  S
C134        C736   1.500       .  S
C135        C705   1.505       .  S
C136        C719   1.499       .  S
C137        C750   1.495       .  S
N148        C153   1.354       .  A
N148        C152   1.358       .  A
N148        H180   1.033       .  S
N149        C156   1.349       .  A
N149        C157   1.349       .  A
N150        C155   1.356       .  A
N150        C154   1.353       .  A
N150        H181   1.033       .  S
N151        C158   1.349       .  A
N151        C159   1.352       .  A
C152        C160   1.386       .  A
C152        C168   1.420       .  A
C153        C169   1.419       .  A
C153        C161   1.388       .  A
C154        C162   1.391       .  A
C154        C171   1.423       .  A
C155        C170   1.414       .  A
C155        C163   1.384       .  A
C156        C168   1.412       .  A
C156        C164   1.386       .  A
C157        C171   1.411       .  A
C157        C165   1.387       .  A
C158        C166   1.388       .  A
C158        C169   1.412       .  A
C159        C167   1.384       .  A
C159        C170   1.409       .  A
C160        C161   1.370       .  A
C160        H172   1.082       .  S
C161        H173   1.081       .  S
C162        C163   1.369       .  A
C162        H174   1.081       .  S
C163        H175   1.083       .  S
C164        C165   1.372       .  A
C164        H176   1.082       .  S
C165        H177   1.082       .  S
C166        C167   1.371       .  A
C166        H178   1.082       .  S
C167        H179   1.082       .  S
C168        C691   1.501       .  S
C169        C775   1.489       .  S
C170        C764   1.498       .  S
C171        C677   1.492       .  S
N182        N183   1.313       .  A
N182        N188   1.318       .  A
N182      Mn2011   2.178       .  S
N183        C190   1.342       .  A
N184        N186   1.316       .  A
N184        N185   1.316       .  A
N184       Mn200   2.196       .  S
N185        C191   1.347       .  A
N186        N187   1.332       .  A
N186      Mn2011   2.251       .  S
N187        C191   1.367       .  A
N188        N189   1.333       .  A
N188       Mn200   2.264       .  S
N189        C190   1.369       .  A
C190        C859   1.502       .  S
C191        C624   1.515       .  S
N192        N198   1.320       .  A
N192        N193   1.329       .  A
N192      Mn2022   2.234       .  S
N193        C201   1.360       .  A
N194        N195   1.332       .  A
N194        N196   1.317       .  A
N194      Mn1100   2.245       .  S
N195        C202   1.367       .  A
N196        N197   1.312       .  A
N196      Mn2022   2.181       .  S
N197        C202   1.344       .  A
N198        N199   1.316       .  A
N198      Mn1100   2.206       .  S
N199        C201   1.346       .  A
Mn200      N1094   2.245       .  S
Mn200      N1098   2.206       .  S
Mn200     Cl2024   2.561       .  S
C201        C649   1.487       .  S
C202        C845   1.506       .  S
N203        N204   1.329       .  A
N203        N209   1.319       .  A
N203       Mn211   2.233       .  S
N204        C212   1.361       .  A
N205        N207   1.317       .  A
N205        N206   1.329       .  A
N205       Mn223   2.224       .  S
N206        C213   1.362       .  A
N207        N208   1.314       .  A
N207       Mn211   2.192       .  S
N208        C213   1.345       .  A
N209        N210   1.316       .  A
N209       Mn223   2.206       .  S
N210        C212   1.346       .  A
Mn211      N1982   2.178   1_455  S
Mn211      N1986   2.251   1_455  S
Mn211      Cl224   2.546       .  S
C212        C638   1.489       .  S
C213        C803   1.495       .  S
N214        N215   1.313       .  A
N214        N220   1.319       .  A
N214       Mn222   2.183       .  S
N215        C225   1.341       .  A
N216        N217   1.309       .  A
N216        N218   1.315       .  A
N216      Mn1123   2.162   1_545  S
N217        C226   1.341       .  A
N218        N219   1.331       .  A
N218       Mn222   2.235       .  S
N219        C226   1.366       .  A
N220        N221   1.333       .  A
N220      Mn1123   2.259   1_545  S
N221        C225   1.366       .  A
Mn222      N1992   2.234   1_455  S
Mn222      N1996   2.181   1_455  S
Mn222     Cl1124   2.546       .  S
Mn223      N1116   2.162       .  S
Mn223      N1120   2.259       .  S
Mn223      Cl224   2.553       .  S
Cl224     Mn2000   2.561   1_455  S
Cl224     Mn1122   2.546       .  S
C225        C792   1.491       .  S
C226        C666   1.494       .  S
N227        N228   1.323       .  A
N227        N233   1.315       .  A
N227      Mn2056   2.213       .  S
N228        C235   1.356       .  A
N229        N231   1.313       .  A
N229        N230   1.319       .  A
N229       Mn245   2.202       .  S
N230        C236   1.355       .  A
N231        N232   1.320       .  A
N231       Mn256   2.196       .  S
N232        C236   1.355       .  A
N233        N234   1.319       .  A
N233      Mn2045   2.200       .  S
N234        C235   1.354       .  A
C235        C610   1.495       .  S
C236        C593   1.508       .  S
N237        N243   1.317       .  A
N237        N238   1.322       .  A
N237       Mn267   2.204       .  S
N238        C246   1.354       .  A
N239        N240   1.315       .  A
N239        N241   1.314       .  A
N239      Mn2045   2.194       .  S
N240        C247   1.351       .  A
N241        N242   1.324       .  A
N241      Mn2067   2.213       .  S
N242        C247   1.359       .  A
N243        N244   1.317       .  A
N243       Mn245   2.197       .  S
N244        C246   1.351       .  A
Mn245      N2033   2.200   1_455  S
Mn245      N2039   2.194   1_455  S
Mn245      Cl269   2.527       .  S
C246        C568   1.482       .  S
C247        C579   1.509       .  S
N248        N249   1.327       .  A
N248        N254   1.314       .  A
N248       Mn256   2.221   1_554  S
N249        C257   1.362       .  A
N250        N252   1.315       .  A
N250        N251   1.317       .  A
N250      Mn2068   2.190       .  S
N251        C258   1.350       .  A
N252        N253   1.320       .  A
N252      Mn2056   2.189   1_554  S
N253        C258   1.350       .  A
N254        N255   1.313       .  A
N254       Mn268   2.184       .  S
N255        C257   1.348       .  A
Mn256      N2027   2.213   1_455  S
Mn256      N2052   2.189   1_456  S
Mn256      Cl269   2.568       .  S
C257        C509   1.504       .  S
C258        C523   1.469       .  S
N259        N260   1.325       .  A
N259        N265   1.314       .  A
N259      Mn2067   2.219   1_554  S
N260        C270   1.361       .  A
N261        N262   1.318       .  A
N261        N263   1.316       .  A
N261       Mn268   2.195       .  S
N262        C271   1.350       .  A
N263        N264   1.324       .  A
N263       Mn267   2.214   1_554  S
N264        C271   1.355       .  A
N265        N266   1.314       .  A
N265      Mn2068   2.186       .  S
N266        C270   1.349       .  A
Mn267      N2041   2.213   1_455  S
Mn267      N2059   2.219   1_456  S
Mn267      Cl269   2.573       .  S
Mn268      N2050   2.190   1_455  S
Mn268      N2065   2.186   1_455  S
Mn268      Cl269   2.522   1_554  S
C270        C551   1.502       .  S
C271        C537   1.483       .  S
N272        C277   1.356       .  A
N272        C276   1.356       .  A
N272        H304   1.036       .  S
N273        C280   1.350       .  A
N273        C281   1.351       .  A
N274        C279   1.354       .  A
N274        C278   1.354       .  A
N274        H305   1.039       .  S
N275        C282   1.349       .  A
N275        C283   1.350       .  A
C276        C284   1.386       .  A
C276        C292   1.419       .  A
C277        C293   1.421       .  A
C277        C285   1.389       .  A
C278        C286   1.388       .  A
C278        C295   1.417       .  A
C279        C294   1.412       .  A
C279        C287   1.385       .  A
C280        C292   1.416       .  A
C280        C288   1.387       .  A
C281        C295   1.417       .  A
C281        C289   1.386       .  A
C282        C290   1.387       .  A
C282        C293   1.414       .  A
C283        C291   1.385       .  A
C283        C294   1.411       .  A
C284        C285   1.370       .  A
C284        H296   1.082       .  S
C285        H297   1.082       .  S
C286        C287   1.372       .  A
C286        H298   1.082       .  S
C287        H299   1.082       .  S
C288        C289   1.371       .  A
C288        H300   1.082       .  S
C289        H301   1.082       .  S
C290        C291   1.371       .  A
C290        H302   1.082       .  S
C291        H303   1.082       .  S
C292        C481   1.499       .  S
C293        C565   1.495       .  S
C294        C582   1.496       .  S
C295        C498   1.501       .  S
N306        C311   1.353       .  A
N306        C310   1.354       .  A
N306        H338   1.037       .  S
N307        C314   1.348       .  A
N307        C315   1.349       .  A
N308        C313   1.354       .  A
N308        C312   1.357       .  A
N308        H339   1.035       .  S
N309        C316   1.355       .  A
N309        C317   1.356       .  A
C310        C318   1.386       .  A
C310        C326   1.414       .  A
C311        C327   1.417       .  A
C311        C319   1.388       .  A
C312        C320   1.386       .  A
C312        C329   1.424       .  A
C313        C328   1.422       .  A
C313        C321   1.388       .  A
C314        C326   1.407       .  A
C314        C322   1.385       .  A
C315        C329   1.414       .  A
C315        C323   1.388       .  A
C316        C324   1.386       .  A
C316        C327   1.419       .  A
C317        C325   1.387       .  A
C317        C328   1.423       .  A
C318        C319   1.373       .  A
C318        H330   1.082       .  S
C319        H331   1.082       .  S
C320        C321   1.376       .  A
C320        H332   1.082       .  S
C321        H333   1.081       .  S
C322        C323   1.371       .  A
C322        H334   1.082       .  S
C323        H335   1.082       .  S
C324        C325   1.370       .  A
C324        H336   1.082       .  S
C325        H337   1.082       .  S
C326        C596   1.493       .  S
C327        C607   1.498       .  S
C328        C467   1.505       .  S
C329        C456   1.505       .  S
N340        N341   1.321       .  A
N340        N346   1.314       .  A
N340       Mn369   2.185       .  S
N341        C348   1.350       .  A
N342        N344   1.312       .  A
N342        N343   1.312       .  A
N342      Mn1258   2.167       .  S
N343        C349   1.347       .  A
N344        N345   1.325       .  A
N344      Mn1269   2.216       .  S
N345        C349   1.361       .  A
N346        N347   1.321       .  A
N346       Mn358   2.212       .  S
N347        C348   1.356       .  A
C348        C694   1.483       .  S
C349        C680   1.499       .  S
N350        N356   1.315       .  A
N350        N351   1.324       .  A
N350      Mn1280   2.203       .  S
N351        C359   1.354       .  A
N352        N353   1.313       .  A
N352        N354   1.313       .  A
N352      Mn2158   2.171       .  S
N353        C360   1.348       .  A
N354        N355   1.327       .  A
N354       Mn380   2.236       .  S
N355        C360   1.363       .  A
N356        N357   1.318       .  A
N356      Mn3058   2.201       .  S
N357        C359   1.351       .  A
Mn358      N1242   2.167       .  S
Mn358      N2152   2.171   1_455  S
Mn358      N3056   2.201   1_455  S
Mn358      Cl382   2.541       .  S
C359        C708   1.482       .  S
C360        C722   1.507       .  S
N361        N362   1.316       .  A
N361        N367   1.316       .  A
N361      Mn1269   2.174       .  S
N362        C370   1.347       .  A
N363        N365   1.317       .  A
N363        N364   1.320       .  A
N363       Mn381   2.201       .  S
N364        C371   1.354       .  A
N365        N366   1.319       .  A
N365       Mn369   2.214       .  S
N366        C371   1.354       .  A
N367        N368   1.326       .  A
N367      Mn1281   2.234   1_545  S
N368        C370   1.359       .  A
Mn369      N1244   2.216       .  S
Mn369      N1261   2.174       .  S
Mn369      Cl382   2.542       .  S
C370        C453   1.490       .  S
C371        C484   1.485       .  S
N372        N373   1.317       .  A
N372        N378   1.317       .  A
N372       Mn380   2.176       .  S
N373        C383   1.348       .  A
N374        N375   1.319       .  A
N374        N376   1.319       .  A
N374      Mn3081   2.200   1_545  S
N375        C384   1.352       .  A
N376        N377   1.323       .  A
N376      Mn1280   2.234       .  S
N377        C384   1.357       .  A
N378        N379   1.324       .  A
N378      Mn2181   2.232       .  S
N379        C383   1.357       .  A
Mn380      N1250   2.203       .  S
Mn380      N1276   2.234       .  S
Mn380     Cl2182   2.550       .  S
Mn381      N1267   2.234       .  S
Mn381      N3074   2.200   1_455  S
Mn381      N2178   2.232   1_455  S
Mn381      Cl382   2.547       .  S
Cl382     Mn2180   2.550   1_455  S
C383        C495   1.486       .  S
C384        C470   1.492       .  S
N385        C390   1.351       .  A
N385        C389   1.349       .  A
N385        H417   1.036       .  S
N386        C393   1.350       .  A
N386        C394   1.351       .  A
N387        C392   1.354       .  A
N387        C391   1.359       .  A
N387        H418   1.039       .  S
N388        C395   1.353       .  A
N388        C396   1.350       .  A
C389        C397   1.387       .  A
C389        C405   1.413       .  A
C390        C406   1.412       .  A
C390        C398   1.387       .  A
C391        C399   1.385       .  A
C391        C408   1.422       .  A
C392        C407   1.424       .  A
C392        C400   1.389       .  A
C393        C405   1.415       .  A
C393        C401   1.388       .  A
C394        C408   1.408       .  A
C394        C402   1.383       .  A
C395        C403   1.385       .  A
C395        C406   1.416       .  A
C396        C404   1.388       .  A
C396        C407   1.414       .  A
C397        C398   1.377       .  A
C397        H409   1.082       .  S
C398        H410   1.082       .  S
C399        C400   1.380       .  A
C399        H411   1.082       .  S
C400        H412   1.082       .  S
C401        C402   1.370       .  A
C401        H413   1.082       .  S
C402        H414   1.082       .  S
C403        C404   1.367       .  A
C403        H415   1.082       .  S
C404        H416   1.082       .  S
C405        C526   1.489       .  S
C406        C512   1.495       .  S
C407        C663   1.494       .  S
C408        C652   1.508       .  S
N419        C424   1.353       .  A
N419        C423   1.348       .  A
N419        H451   1.037       .  S
N420        C427   1.354       .  A
N420        C428   1.355       .  A
N421        C426   1.359       .  A
N421        C425   1.359       .  A
N421        H452   1.039       .  S
N422        C429   1.352       .  A
N422        C430   1.349       .  A
C423        C431   1.387       .  A
C423        C439   1.411       .  A
C424        C440   1.415       .  A
C424        C432   1.387       .  A
C425        C433   1.388       .  A
C425        C442   1.429       .  A
C426        C441   1.427       .  A
C426        C434   1.386       .  A
C427        C439   1.419       .  A
C427        C435   1.386       .  A
C428        C442   1.418       .  A
C428        C436   1.387       .  A
C429        C437   1.386       .  A
C429        C440   1.414       .  A
C430        C438   1.387       .  A
C430        C441   1.412       .  A
C431        C432   1.378       .  A
C431        H443   1.082       .  S
C432        H444   1.082       .  S
C433        C434   1.381       .  A
C433        H445   1.082       .  S
C434        H446   1.082       .  S
C435        C436   1.370       .  A
C435        H447   1.082       .  S
C436        H448   1.081       .  S
C437        C438   1.372       .  A
C437        H449   1.082       .  S
C438        H450   1.082       .  S
C439        C554   1.492       .  S
C440        C540   1.500       .  S
C441        C635   1.509       .  S
C442        C621   1.514       .  S
C453        C454   1.409       .  A
C453        C458   1.420       .  A
C454        C455   1.413       .  A
C454        C459   1.450       .  S
C455        C456   1.419       .  A
C455        C462   1.451       .  S
C456        C457   1.411       .  A
C457        C458   1.410       .  A
C457        C460   1.452       .  S
C458        C461   1.451       .  S
C459        N466   1.157       .  T
C460        N465   1.157       .  T
C461        N463   1.157   1_545  T
C462        N464   1.157       .  T
C467        C468   1.413       .  A
C467        C472   1.415       .  A
C468        C469   1.410       .  A
C468        C473   1.453       .  S
C469        C470   1.418       .  A
C469        C476   1.452       .  S
C470        C471   1.412       .  A
C471        C472   1.416       .  A
C471        C474   1.450       .  S
C472        C475   1.450       .  S
C473        N480   1.157       .  T
C474        N479   1.157       .  T
C475        N477   1.157       .  T
C476        N478   1.157   1_545  T
C481        C482   1.414       .  A
C481        C486   1.412       .  A
C482        C483   1.412       .  A
C482        C487   1.450       .  S
C483        C484   1.411       .  A
C483        C490   1.450       .  S
C484        C485   1.417       .  A
C485        C486   1.409       .  A
C485        C488   1.452       .  S
C486        C489   1.453       .  S
C487        N494   1.157       .  T
C488        N493   1.157       .  T
C489        N491   1.157       .  T
C490        N492   1.157       .  T
C495        C496   1.418       .  A
C495        C500   1.408       .  A
C496        C497   1.409       .  A
C496        C501   1.450       .  S
C497        C498   1.412       .  A
C497        C504   1.453       .  S
C498        C499   1.417       .  A
C499        C500   1.411       .  A
C499        C502   1.451       .  S
C500        C503   1.450       .  S
C501        N508   1.157       .  T
C502        N507   1.157       .  T
C503        N505   1.157       .  T
C504        N506   1.157       .  T
C509        C510   1.426       .  A
C509        C514   1.422       .  A
C510        C511   1.404       .  A
C510        C515   1.451       .  S
C511        C512   1.406       .  A
C511        C518   1.455       .  S
C512        C513   1.410       .  A
C513        C514   1.418       .  A
C513        C516   1.450       .  S
C514        C517   1.450       .  S
C515        N522   1.157       .  T
C516        N521   1.157       .  T
C517        N519   1.158       .  T
C518        N520   1.157       .  T
C523        C524   1.409       .  A
C523        C528   1.409       .  A
C524        C525   1.407       .  A
C524        C529   1.451       .  S
C525        C526   1.414       .  A
C525        C532   1.451       .  S
C526        C527   1.413       .  A
C527        C528   1.405       .  A
C527        C530   1.451       .  S
C528        C531   1.452       .  S
C529        N536   1.157       .  T
C530        N535   1.157       .  T
C531        N533   1.157       .  T
C532        N534   1.157       .  T
C537        C538   1.411       .  A
C537        C542   1.411       .  A
C538        C539   1.412       .  A
C538        C543   1.450       .  S
C539        C540   1.414       .  A
C539        C546   1.450       .  S
C540        C541   1.413       .  A
C541        C542   1.410       .  A
C541        C544   1.451       .  S
C542        C545   1.451       .  S
C543        N550   1.157       .  T
C544        N549   1.157       .  T
C545        N547   1.157       .  T
C546        N548   1.157       .  T
C551        C552   1.425       .  A
C551        C556   1.423       .  A
C552        C553   1.405       .  A
C552        C557   1.451       .  S
C553        C554   1.405       .  A
C553        C560   1.455       .  S
C554        C555   1.408       .  A
C555        C556   1.416       .  A
C555        C558   1.450       .  S
C556        C559   1.450       .  S
C557        N564   1.157       .  T
C558        N563   1.157       .  T
C559        N561   1.157       .  T
C560        N562   1.157       .  T
C565        C566   1.412       .  A
C565        C570   1.413       .  A
C566        C567   1.406       .  A
C566        C571   1.451       .  S
C567        C568   1.413       .  A
C567        C574   1.452       .  S
C568        C569   1.414       .  A
C569        C570   1.410       .  A
C569        C572   1.450       .  S
C570        C573   1.451       .  S
C571        N578   1.157       .  T
C572        N577   1.157       .  T
C573        N575   1.157       .  T
C574        N576   1.157       .  T
C579        C580   1.425       .  A
C579        C584   1.427       .  A
C580        C581   1.415       .  A
C580        C585   1.449       .  S
C581        C582   1.408       .  A
C581        C588   1.451       .  S
C582        C583   1.407       .  A
C583        C584   1.408       .  A
C583        C586   1.454       .  S
C584        C587   1.452       .  S
C585        N592   1.157       .  T
C586        N591   1.157       .  T
C587        N589   1.158       .  T
C588        N590   1.157       .  T
C593        C594   1.428       .  A
C593        C598   1.426       .  A
C594        C595   1.414       .  A
C594        C599   1.451       .  S
C595        C596   1.404       .  A
C595        C602   1.451       .  S
C596        C597   1.408       .  A
C597        C598   1.409       .  A
C597        C600   1.454       .  S
C598        C601   1.452       .  S
C599        N606   1.158       .  T
C600        N605   1.157       .  T
C601        N603   1.158       .  T
C602        N604   1.157       .  T
C607        C608   1.410       .  A
C607        C612   1.411       .  A
C608        C609   1.408       .  A
C608        C613   1.452       .  S
C609        C610   1.417       .  A
C609        C616   1.451       .  S
C610        C611   1.419       .  A
C611        C612   1.414       .  A
C611        C614   1.450       .  S
C612        C615   1.451       .  S
C613        N620   1.157       .  T
C614        N619   1.158       .  T
C615        N617   1.157       .  T
C616        N618   1.157       .  T
C621        C622   1.409       .  A
C621        C626   1.417       .  A
C622        C623   1.413       .  A
C622        C627   1.454       .  S
C623        C624   1.425       .  A
C623        C630   1.447       .  S
C624        C625   1.419       .  A
C625        C626   1.423       .  A
C625        C628   1.449       .  S
C626        C629   1.450       .  S
C627        N634   1.157       .  T
C628        N633   1.157       .  T
C629        N631   1.157       .  T
C630       N1532   1.156       .  T
N632       C1530   1.156   1_545  T
C635        C636   1.413       .  A
C635        C640   1.419       .  A
C636        C637   1.416       .  A
C636        C641   1.450       .  S
C637        C638   1.414       .  A
C637        C644   1.448       .  S
C638        C639   1.410       .  A
C639        C640   1.413       .  A
C639        C642   1.451       .  S
C640        C643   1.451       .  S
C641        N648   1.157       .  T
C642        N647   1.157       .  T
C643        N645   1.157       .  T
C644        N646   1.157       .  T
C649        C650   1.412       .  A
C649        C654   1.410       .  A
C650        C651   1.416       .  A
C650        C655   1.449       .  S
C651        C652   1.414       .  A
C651        C658   1.449       .  S
C652        C653   1.418       .  A
C653        C654   1.414       .  A
C653        C656   1.451       .  S
C654        C657   1.452       .  S
C655        N662   1.157       .  T
C656        N661   1.157       .  T
C657        N659   1.157       .  T
C658        N660   1.157       .  T
C663        C664   1.415       .  A
C663        C668   1.405       .  A
C664        C665   1.418       .  A
C664        C669   1.449       .  S
C665        C666   1.415       .  A
C665        C672   1.449       .  S
C666        C667   1.421       .  A
C667        C668   1.402       .  A
C667        C670   1.446       .  S
C668        C671   1.455       .  S
C669        N676   1.157       .  T
C670        N675   1.154   1_545  T
C671        N673   1.157       .  T
C672        N674   1.157       .  T
C677        C678   1.405       .  A
C677        C682   1.408       .  A
C678        C679   1.403       .  A
C678        C683   1.455       .  S
C679        C680   1.427       .  A
C679        C686   1.450       .  S
C680        C681   1.422       .  A
C681        C682   1.414       .  A
C681        C684   1.450       .  S
C682        C685   1.450       .  S
C683        N690   1.157       .  T
C684        N689   1.158       .  T
C685        N687   1.157       .  T
C686        N688   1.157       .  T
C691        C692   1.415       .  A
C691        C696   1.414       .  A
C692        C693   1.407       .  A
C692        C697   1.450       .  S
C693        C694   1.408       .  A
C693        C700   1.451       .  S
C694        C695   1.413       .  A
C695        C696   1.414       .  A
C695        C698   1.450       .  S
C696        C699   1.450       .  S
C697        N704   1.157       .  T
C698        N703   1.157       .  T
C699        N701   1.157       .  T
C700        N702   1.157       .  T
C705        C706   1.417       .  A
C705        C710   1.417       .  A
C706        C707   1.408       .  A
C706        C711   1.450       .  S
C707        C708   1.408       .  A
C707        C714   1.452       .  S
C708        C709   1.411       .  A
C709        C710   1.414       .  A
C709        C712   1.450       .  S
C710        C713   1.451       .  S
C711       N2518   1.157       .  T
C712        N717   1.157       .  T
C713        N715   1.157       .  T
C714       N2516   1.157       .  T
N716       C2514   1.157       .  T
N718       C2511   1.157       .  T
C719        C720   1.406       .  A
C719        C724   1.410       .  A
C720        C721   1.407       .  A
C720        C725   1.454       .  S
C721        C722   1.428       .  A
C721        C728   1.451       .  S
C722        C723   1.422       .  A
C723        C724   1.418       .  A
C723        C726   1.450       .  S
C724        C727   1.450       .  S
C725        N732   1.157       .  T
C726        N731   1.158       .  T
C727        N729   1.157       .  T
C728        N730   1.158       .  T
C733        C734   1.419       .  A
C733        C738   1.418       .  A
C734        C735   1.407       .  A
C734        C739   1.450       .  S
C735        C736   1.410       .  A
C735        C742   1.453       .  S
C736        C737   1.413       .  A
C737        C738   1.418       .  A
C737        C740   1.450       .  S
C738        C741   1.449       .  S
C739        N746   1.156       .  T
C740        N745   1.157       .  T
C741        N743   1.157       .  T
C742        N744   1.157       .  T
C747        C748   1.422       .  A
C747        C752   1.432       .  A
C748        C749   1.416       .  A
C748        C753   1.449       .  S
C749        C750   1.409       .  A
C749        C756   1.450       .  S
C750        C751   1.408       .  A
C751        C752   1.406       .  A
C751        C754   1.457       .  S
C752        C755   1.455       .  S
C753        N760   1.157       .  T
C754        N759   1.158       .  T
C755        N757   1.158       .  T
C756        N758   1.157       .  T
C761        C762   1.423       .  A
C761        C766   1.418       .  A
C762        C763   1.399       .  A
C762        C767   1.453       .  S
C763        C764   1.407       .  A
C763        C770   1.454       .  S
C764        C765   1.415       .  A
C765        C766   1.419       .  A
C765        C768   1.449       .  S
C766        C769   1.449       .  S
C767        N774   1.158       .  T
C768        N773   1.157       .  T
C769        N771   1.158       .  T
C770        N772   1.157       .  T
C775        C776   1.410       .  A
C775        C780   1.413       .  A
C776        C777   1.403       .  A
C776        C781   1.452       .  S
C777        C778   1.412       .  A
C777        C784   1.449       .  S
C778        C779   1.412       .  A
C779        C780   1.409       .  A
C779        C782   1.450       .  S
C780        C783   1.451       .  S
C781        N788   1.157       .  T
C782        N787   1.157       .  T
C783        N785   1.157       .  T
C784        N786   1.156       .  T
C789        C790   1.415       .  A
C789        C794   1.420       .  A
C790        C791   1.418       .  A
C790        C795   1.450       .  S
C791        C792   1.415       .  A
C791        C798   1.450       .  S
C792        C793   1.411       .  A
C793        C794   1.416       .  A
C793        C796   1.451       .  S
C794        C797   1.452       .  S
C795        N802   1.157       .  T
C796        N801   1.157       .  T
C797       N2599   1.157       .  T
C798        N800   1.157       .  T
N799       C2597   1.157       .  T
C803        C804   1.418       .  A
C803        C808   1.410       .  A
C804        C805   1.411       .  A
C804        C809   1.451       .  S
C805        C806   1.415       .  A
C805        C812   1.449       .  S
C806        C807   1.426       .  A
C807        C808   1.417       .  A
C807        C810   1.451       .  S
C808        C811   1.448       .  S
C809        N816   1.157       .  T
C810        N815   1.157       .  T
C811        N813   1.157       .  T
C812        N814   1.158       .  T
C817        C818   1.411       .  A
C817        C822   1.408       .  A
C818        C819   1.409       .  A
C818        C823   1.451       .  S
C819        C820   1.411       .  A
C819        C826   1.450       .  S
C820        C821   1.413       .  A
C821        C822   1.403       .  A
C821        C824   1.451       .  S
C822        C825   1.452       .  S
C823        N830   1.157       .  T
C824        N829   1.157       .  T
C825        N827   1.157       .  T
C826        N828   1.157       .  T
C831        C832   1.412       .  A
C831        C836   1.409       .  A
C832        C833   1.419       .  A
C832        C837   1.449       .  S
C833        C834   1.417       .  A
C833        C840   1.449       .  S
C834        C835   1.418       .  A
C835        C836   1.405       .  A
C835        C838   1.451       .  S
C836        C839   1.454       .  S
C837        N844   1.157       .  T
C838        N843   1.156       .  T
C839        N841   1.157       .  T
C840        N842   1.157       .  T
C845        C846   1.417       .  A
C845        C850   1.423       .  A
C846        C847   1.420       .  A
C846        C851   1.449       .  S
C847        C848   1.415       .  A
C847        C854   1.450       .  S
C848        C849   1.406       .  A
C849        C850   1.409       .  A
C849        C852   1.454       .  S
C850        C853   1.447       .  S
C851        N858   1.157       .  T
C852        N857   1.157       .  T
C853       N2655   1.155       .  T
C854        N856   1.157       .  T
N855       C2653   1.155   1_455  T
C859        C860   1.413       .  A
C859        C864   1.423       .  A
C860        C861   1.419       .  A
C860        C865   1.449       .  S
C861        C862   1.416       .  A
C861        C868   1.449       .  S
C862        C863   1.409       .  A
C863        C864   1.414       .  A
C863        C866   1.452       .  S
C864        C867   1.452       .  S
C865        N872   1.157       .  T
C866        N871   1.157       .  T
C867       N2669   1.157       .  T
C868        N870   1.157       .  T
N869       C2667   1.157       .  T
C873        C874   1.406       .  A
C873        C878   1.411       .  A
C874        C875   1.409       .  A
C874        C879   1.454       .  S
C875        C876   1.429       .  A
C875        C882   1.453       .  S
C876        C877   1.420       .  A
C877        C878   1.415       .  A
C877        C880   1.450       .  S
C878        C881   1.451       .  S
C879        N886   1.157       .  T
C880        N885   1.158       .  T
C881        N883   1.157       .  T
C882        N884   1.158       .  T
C887        C888   1.411       .  A
C887        C892   1.412       .  A
C888        C889   1.406       .  A
C888        C893   1.453       .  S
C889        C890   1.418       .  A
C889        C896   1.452       .  S
C890        C891   1.415       .  A
C891        C892   1.414       .  A
C891        C894   1.448       .  S
C892        C895   1.451       .  S
C893        N900   1.157       .  T
C894        N899   1.157       .  T
C895        N897   1.157       .  T
C896        N898   1.157       .  T
N901        C906   1.352       .  A
N901        C905   1.351       .  A
N901        H933   1.040       .  S
N902        C909   1.348       .  A
N902        C910   1.347       .  A
N903        C908   1.352       .  A
N903        C907   1.355       .  A
N903        H934   1.040       .  S
N904        C911   1.355       .  A
N904        C912   1.353       .  A
C905        C913   1.386       .  A
C905        C921   1.413       .  A
C906        C922   1.412       .  A
C906        C914   1.387       .  A
C907        C915   1.385       .  A
C907        C924   1.414       .  A
C908        C923   1.416       .  A
C908        C916   1.389       .  A
C909        C921   1.410       .  A
C909        C917   1.387       .  A
C910        C924   1.407       .  A
C910        C918   1.385       .  A
C911        C919   1.385       .  A
C911        C922   1.420       .  A
C912        C920   1.387       .  A
C912        C923   1.421       .  A
C913        C914   1.375       .  A
C913        H925   1.082       .  S
C914        H926   1.082       .  S
C915        C916   1.374       .  A
C915        H927   1.082       .  S
C916        H928   1.082       .  S
C917        C918   1.377       .  A
C917        H929   1.082       .  S
C918        H930   1.083       .  S
C919        C920   1.383       .  A
C919        H931   1.082       .  S
C920        H932   1.082       .  S
C921       C1787   1.496       .  S
C922       C1762   1.505       .  S
C923       C1748   1.501       .  S
C924       C1773   1.496       .  S
N935        C940   1.353       .  A
N935        C939   1.350       .  A
N935        H967   1.042       .  S
N936        C943   1.348       .  A
N936        C944   1.348       .  A
N937        C942   1.355       .  A
N937        C941   1.357       .  A
N937        H968   1.039       .  S
N938        C945   1.357       .  A
N938        C946   1.352       .  A
C939        C947   1.390       .  A
C939        C955   1.414       .  A
C940        C956   1.408       .  A
C940        C948   1.384       .  A
C941        C949   1.382       .  A
C941        C958   1.414       .  A
C942        C957   1.427       .  A
C942        C950   1.391       .  A
C943        C955   1.408       .  A
C943        C951   1.387       .  A
C944        C958   1.408       .  A
C944        C952   1.385       .  A
C945        C953   1.381       .  A
C945        C956   1.416       .  A
C946        C954   1.389       .  A
C946        C957   1.425       .  A
C947        C948   1.372       .  A
C947        H959   1.082       .  S
C948        H960   1.082       .  S
C949        C950   1.374       .  A
C949        H961   1.082       .  S
C950        H962   1.082       .  S
C951        C952   1.373       .  A
C951        H963   1.082       .  S
C952        H964   1.082       .  S
C953        C954   1.381       .  A
C953        H965   1.082       .  S
C954        H966   1.082       .  S
C955       C1717   1.484       .  S
C956       C1689   1.514       .  S
C957       C1706   1.541       .  S
C958       C1731   1.497       .  S
N969        N970   1.326       .  A
N969        N975   1.316       .  A
N970        C977   1.360       .  A
N971        N973   1.313       .  A
N971        N972   1.312       .  A
N971       Mn987   2.170       .  S
N972        C978   1.346       .  A
N973        N974   1.327       .  A
N973       Mn998   2.227       .  S
N974        C978   1.363       .  A
N975        N976   1.314       .  A
N976        C977   1.348       .  A
C977       C1790   1.492       .  S
C978       C1776   1.504       .  S
N979        N985   1.315       .  A
N979        N980   1.323       .  A
N979      Mn1009   2.197       .  S
N980        C988   1.354       .  A
N981        N982   1.314       .  A
N981        N983   1.314       .  A
N982        C989   1.347       .  A
N983        N984   1.329       .  A
N984        C989   1.362       .  A
N985        N986   1.314       .  A
N985       Mn987   2.186       .  S
N986        C988   1.349       .  A
Mn987     Cl1011   2.501       .  S
C988       C1720   1.475       .  S
C989       C1734   1.496       .  S
N990        N991   1.327       .  A
N990        N996   1.315       .  A
N990       Mn998   2.229       .  S
N991        C999   1.361       .  A
N992        N994   1.312       .  A
N992        N993   1.309       .  A
N993       C1000   1.344       .  A
N994        N995   1.329       .  A
N995       C1000   1.366       .  A
N996        N997   1.316       .  A
N996      Mn1010   2.192       .  S
N997        C999   1.351       .  A
Mn998     Cl1011   2.591       .  S
C999       C1633   1.501       .  S
C1000      C1647   1.509       .  S
N1001      N1002   1.321       .  A
N1001      N1007   1.315       .  A
N1002      C1012   1.354       .  A
N1003      N1004   1.308       .  A
N1003      N1005   1.312       .  A
N1003     Mn1010   2.161       .  S
N1004      C1013   1.344       .  A
N1005      N1006   1.329       .  A
N1005     Mn1009   2.226       .  S
N1006      C1013   1.363       .  A
N1007      N1008   1.315       .  A
N1008      C1012   1.350       .  A
Mn1009    Cl1011   2.592       .  S
Mn1010    Cl1011   2.496       .  S
C1012      C1678   1.480       .  S
C1013      C1661   1.499       .  S
N1014      C1019   1.356       .  A
N1014      C1018   1.356       .  A
N1014      H1046   1.038       .  S
N1015      C1022   1.351       .  A
N1015      C1023   1.352       .  A
N1016      C1021   1.353       .  A
N1016      C1020   1.351       .  A
N1016      H1047   1.038       .  S
N1017      C1024   1.349       .  A
N1017      C1025   1.352       .  A
C1018      C1026   1.386       .  A
C1018      C1034   1.418       .  A
C1019      C1035   1.424       .  A
C1019      C1027   1.389       .  A
C1020      C1028   1.384       .  A
C1020      C1037   1.409       .  A
C1021      C1036   1.418       .  A
C1021      C1029   1.390       .  A
C1022      C1034   1.415       .  A
C1022      C1030   1.388       .  A
C1023      C1037   1.410       .  A
C1023      C1031   1.384       .  A
C1024      C1032   1.388       .  A
C1024      C1035   1.417       .  A
C1025      C1033   1.384       .  A
C1025      C1036   1.411       .  A
C1026      C1027   1.377       .  A
C1026      H1038   1.082       .  S
C1027      H1039   1.082       .  S
C1028      C1029   1.370       .  A
C1028      H1040   1.083       .  S
C1029      H1041   1.081       .  S
C1030      C1031   1.373       .  A
C1030      H1042   1.082       .  S
C1031      H1043   1.082       .  S
C1032      C1033   1.375       .  A
C1032      H1044   1.082       .  S
C1033      H1045   1.082       .  S
C1034      C1636   1.500       .  S
C1035      C1605   1.505       .  S
C1036      C1619   1.499       .  S
C1037      C1650   1.495       .  S
N1048      C1053   1.354       .  A
N1048      C1052   1.358       .  A
N1048      H1080   1.033       .  S
N1049      C1056   1.349       .  A
N1049      C1057   1.349       .  A
N1050      C1055   1.356       .  A
N1050      C1054   1.353       .  A
N1050      H1081   1.033       .  S
N1051      C1058   1.349       .  A
N1051      C1059   1.352       .  A
C1052      C1060   1.386       .  A
C1052      C1068   1.420       .  A
C1053      C1069   1.419       .  A
C1053      C1061   1.388       .  A
C1054      C1062   1.391       .  A
C1054      C1071   1.423       .  A
C1055      C1070   1.414       .  A
C1055      C1063   1.384       .  A
C1056      C1068   1.412       .  A
C1056      C1064   1.386       .  A
C1057      C1071   1.411       .  A
C1057      C1065   1.387       .  A
C1058      C1066   1.388       .  A
C1058      C1069   1.412       .  A
C1059      C1067   1.384       .  A
C1059      C1070   1.409       .  A
C1060      C1061   1.370       .  A
C1060      H1072   1.082       .  S
C1061      H1073   1.081       .  S
C1062      C1063   1.369       .  A
C1062      H1074   1.081       .  S
C1063      H1075   1.083       .  S
C1064      C1065   1.372       .  A
C1064      H1076   1.082       .  S
C1065      H1077   1.082       .  S
C1066      C1067   1.371       .  A
C1066      H1078   1.082       .  S
C1067      H1079   1.082       .  S
C1068      C1591   1.501       .  S
C1069      C1675   1.489       .  S
C1070      C1664   1.498       .  S
C1071      C1577   1.492       .  S
N1082      N1083   1.313       .  A
N1082      N1088   1.318       .  A
N1082     Mn2911   2.178       .  S
N1083      C1090   1.342       .  A
N1084      N1086   1.316       .  A
N1084      N1085   1.316       .  A
N1084     Mn1100   2.196   1_565  S
N1085      C1091   1.347       .  A
N1086      N1087   1.332       .  A
N1086     Mn2911   2.251       .  S
N1087      C1091   1.367       .  A
N1088      N1089   1.333       .  A
N1088     Mn1100   2.264   1_565  S
N1089      C1090   1.369       .  A
C1090      C1759   1.502       .  S
C1091      C1524   1.515       .  S
N1092      N1098   1.320       .  A
N1092      N1093   1.329       .  A
N1092     Mn2922   2.234       .  S
N1093      C1101   1.360       .  A
N1094      N1095   1.332       .  A
N1094      N1096   1.317       .  A
N1095      C1102   1.367       .  A
N1096      N1097   1.312       .  A
N1096     Mn2922   2.181       .  S
N1097      C1102   1.344       .  A
N1098      N1099   1.316       .  A
N1099      C1101   1.346       .  A
Mn1100    Cl2924   2.561       .  S
C1101      C1549   1.487       .  S
C1102      C1745   1.506       .  S
N1103      N1104   1.329       .  A
N1103      N1109   1.319       .  A
N1103     Mn1111   2.233       .  S
N1104      C1112   1.361       .  A
N1105      N1107   1.317       .  A
N1105      N1106   1.329       .  A
N1105     Mn1123   2.224       .  S
N1106      C1113   1.362       .  A
N1107      N1108   1.314       .  A
N1107     Mn1111   2.192       .  S
N1108      C1113   1.345       .  A
N1109      N1110   1.316       .  A
N1109     Mn1123   2.206       .  S
N1110      C1112   1.346       .  A
Mn1111     N2882   2.178   1_455  S
Mn1111     N2886   2.251   1_455  S
Mn1111    Cl1124   2.546   1_565  S
C1112      C1538   1.489       .  S
C1113      C1703   1.495       .  S
N1114      N1115   1.313       .  A
N1114      N1120   1.319       .  A
N1114     Mn1122   2.183       .  S
N1115      C1125   1.341       .  A
N1116      N1117   1.309       .  A
N1116      N1118   1.315       .  A
N1117      C1126   1.341       .  A
N1118      N1119   1.331       .  A
N1118     Mn1122   2.235       .  S
N1119      C1126   1.366       .  A
N1120      N1121   1.333       .  A
N1121      C1125   1.366       .  A
Mn1122     N2892   2.234   1_455  S
Mn1122     N2896   2.181   1_455  S
Mn1123    Cl1124   2.553   1_565  S
Cl1124    Mn2900   2.561   1_455  S
C1125      C1692   1.491       .  S
C1126      C1566   1.494       .  S
N1127      N1128   1.323       .  A
N1127      N1133   1.315       .  A
N1127     Mn2956   2.213       .  S
N1128      C1135   1.356       .  A
N1129      N1131   1.313       .  A
N1129      N1130   1.319       .  A
N1129     Mn1145   2.202       .  S
N1130      C1136   1.355       .  A
N1131      N1132   1.320       .  A
N1131     Mn1156   2.196       .  S
N1132      C1136   1.355       .  A
N1133      N1134   1.319       .  A
N1133     Mn2945   2.200       .  S
N1134      C1135   1.354       .  A
C1135      C1510   1.495       .  S
C1136      C1493   1.508       .  S
N1137      N1143   1.317       .  A
N1137      N1138   1.322       .  A
N1137     Mn1167   2.204       .  S
N1138      C1146   1.354       .  A
N1139      N1140   1.315       .  A
N1139      N1141   1.314       .  A
N1139     Mn2945   2.194       .  S
N1140      C1147   1.351       .  A
N1141      N1142   1.324       .  A
N1141     Mn2967   2.213       .  S
N1142      C1147   1.359       .  A
N1143      N1144   1.317       .  A
N1143     Mn1145   2.197       .  S
N1144      C1146   1.351       .  A
Mn1145     N2933   2.200   1_455  S
Mn1145     N2939   2.194   1_455  S
Mn1145    Cl1169   2.527       .  S
C1146      C1468   1.482       .  S
C1147      C1479   1.509       .  S
N1148      N1149   1.327       .  A
N1148      N1154   1.314       .  A
N1148     Mn1156   2.221   1_554  S
N1149      C1157   1.362       .  A
N1150      N1152   1.315       .  A
N1150      N1151   1.317       .  A
N1150     Mn2968   2.190       .  S
N1151      C1158   1.350       .  A
N1152      N1153   1.320       .  A
N1152     Mn2956   2.189   1_554  S
N1153      C1158   1.350       .  A
N1154      N1155   1.313       .  A
N1154     Mn1168   2.184       .  S
N1155      C1157   1.348       .  A
Mn1156     N2927   2.213   1_455  S
Mn1156     N2952   2.189   1_456  S
Mn1156    Cl1169   2.568       .  S
C1157      C1409   1.504       .  S
C1158      C1423   1.469       .  S
N1159      N1160   1.325       .  A
N1159      N1165   1.314       .  A
N1159     Mn2967   2.219   1_554  S
N1160      C1170   1.361       .  A
N1161      N1162   1.318       .  A
N1161      N1163   1.316       .  A
N1161     Mn1168   2.195       .  S
N1162      C1171   1.350       .  A
N1163      N1164   1.324       .  A
N1163     Mn1167   2.214   1_554  S
N1164      C1171   1.355       .  A
N1165      N1166   1.314       .  A
N1165     Mn2968   2.186       .  S
N1166      C1170   1.349       .  A
Mn1167     N2941   2.213   1_455  S
Mn1167     N2959   2.219   1_456  S
Mn1167    Cl1169   2.573       .  S
Mn1168     N2950   2.190   1_455  S
Mn1168     N2965   2.186   1_455  S
Mn1168    Cl1169   2.522   1_554  S
C1170      C1451   1.502       .  S
C1171      C1437   1.483       .  S
N1172      C1177   1.356       .  A
N1172      C1176   1.356       .  A
N1172      H1204   1.036       .  S
N1173      C1180   1.350       .  A
N1173      C1181   1.351       .  A
N1174      C1179   1.354       .  A
N1174      C1178   1.354       .  A
N1174      H1205   1.039       .  S
N1175      C1182   1.349       .  A
N1175      C1183   1.350       .  A
C1176      C1184   1.386       .  A
C1176      C1192   1.419       .  A
C1177      C1193   1.421       .  A
C1177      C1185   1.389       .  A
C1178      C1186   1.388       .  A
C1178      C1195   1.417       .  A
C1179      C1194   1.412       .  A
C1179      C1187   1.385       .  A
C1180      C1192   1.416       .  A
C1180      C1188   1.387       .  A
C1181      C1195   1.417       .  A
C1181      C1189   1.386       .  A
C1182      C1190   1.387       .  A
C1182      C1193   1.414       .  A
C1183      C1191   1.385       .  A
C1183      C1194   1.411       .  A
C1184      C1185   1.370       .  A
C1184      H1196   1.082       .  S
C1185      H1197   1.082       .  S
C1186      C1187   1.372       .  A
C1186      H1198   1.082       .  S
C1187      H1199   1.082       .  S
C1188      C1189   1.371       .  A
C1188      H1200   1.082       .  S
C1189      H1201   1.082       .  S
C1190      C1191   1.371       .  A
C1190      H1202   1.082       .  S
C1191      H1203   1.082       .  S
C1192      C1381   1.499       .  S
C1193      C1465   1.495       .  S
C1194      C1482   1.496       .  S
C1195      C1398   1.501       .  S
N1206      C1211   1.353       .  A
N1206      C1210   1.354       .  A
N1206      H1238   1.037       .  S
N1207      C1214   1.348       .  A
N1207      C1215   1.349       .  A
N1208      C1213   1.354       .  A
N1208      C1212   1.357       .  A
N1208      H1239   1.035       .  S
N1209      C1216   1.355       .  A
N1209      C1217   1.356       .  A
C1210      C1218   1.386       .  A
C1210      C1226   1.414       .  A
C1211      C1227   1.417       .  A
C1211      C1219   1.388       .  A
C1212      C1220   1.386       .  A
C1212      C1229   1.424       .  A
C1213      C1228   1.422       .  A
C1213      C1221   1.388       .  A
C1214      C1226   1.407       .  A
C1214      C1222   1.385       .  A
C1215      C1229   1.414       .  A
C1215      C1223   1.388       .  A
C1216      C1224   1.386       .  A
C1216      C1227   1.419       .  A
C1217      C1225   1.387       .  A
C1217      C1228   1.423       .  A
C1218      C1219   1.373       .  A
C1218      H1230   1.082       .  S
C1219      H1231   1.082       .  S
C1220      C1221   1.376       .  A
C1220      H1232   1.082       .  S
C1221      H1233   1.081       .  S
C1222      C1223   1.371       .  A
C1222      H1234   1.082       .  S
C1223      H1235   1.082       .  S
C1224      C1225   1.370       .  A
C1224      H1236   1.082       .  S
C1225      H1237   1.082       .  S
C1226      C1496   1.493       .  S
C1227      C1507   1.498       .  S
C1228      C1367   1.505       .  S
C1229      C1356   1.505       .  S
N1240      N1241   1.321       .  A
N1240      N1246   1.314       .  A
N1240     Mn1269   2.185   1_565  S
N1241      C1248   1.350       .  A
N1242      N1244   1.312       .  A
N1242      N1243   1.312       .  A
N1243      C1249   1.347       .  A
N1244      N1245   1.325       .  A
N1245      C1249   1.361       .  A
N1246      N1247   1.321       .  A
N1246     Mn1258   2.212   1_565  S
N1247      C1248   1.356       .  A
C1248      C1594   1.483       .  S
C1249      C1580   1.499       .  S
N1250      N1256   1.315       .  A
N1250      N1251   1.324       .  A
N1251      C1259   1.354       .  A
N1252      N1253   1.313       .  A
N1252      N1254   1.313       .  A
N1252     Mn3058   2.171   1_565  S
N1253      C1260   1.348       .  A
N1254      N1255   1.327       .  A
N1254     Mn1280   2.236   1_565  S
N1255      C1260   1.363       .  A
N1256      N1257   1.318       .  A
N1256     Mn2158   2.201       .  S
N1257      C1259   1.351       .  A
Mn1258     N3052   2.171   1_445  S
Mn1258     N2156   2.201   1_455  S
Mn1258    Cl1282   2.541       .  S
C1259      C1608   1.482       .  S
C1260      C1622   1.507       .  S
N1261      N1262   1.316       .  A
N1261      N1267   1.316       .  A
N1262      C1270   1.347       .  A
N1263      N1265   1.317       .  A
N1263      N1264   1.320       .  A
N1263     Mn1281   2.201       .  S
N1264      C1271   1.354       .  A
N1265      N1266   1.319       .  A
N1265     Mn1269   2.214   1_565  S
N1266      C1271   1.354       .  A
N1267      N1268   1.326       .  A
N1268      C1270   1.359       .  A
Mn1269    Cl1282   2.542       .  S
C1270      C1353   1.490       .  S
C1271      C1384   1.485       .  S
N1272      N1273   1.317       .  A
N1272      N1278   1.317       .  A
N1272     Mn1280   2.176   1_565  S
N1273      C1283   1.348       .  A
N1274      N1275   1.319       .  A
N1274      N1276   1.319       .  A
N1274     Mn2181   2.200       .  S
N1275      C1284   1.352       .  A
N1276      N1277   1.323       .  A
N1277      C1284   1.357       .  A
N1278      N1279   1.324       .  A
N1278     Mn3081   2.232       .  S
N1279      C1283   1.357       .  A
Mn1280    Cl3082   2.550       .  S
Mn1281     N2174   2.200   1_465  S
Mn1281     N3078   2.232   1_455  S
Mn1281    Cl1282   2.547   1_565  S
Cl1282    Mn3080   2.550   1_455  S
C1283      C1395   1.486       .  S
C1284      C1370   1.492       .  S
N1285      C1290   1.351       .  A
N1285      C1289   1.349       .  A
N1285      H1317   1.036       .  S
N1286      C1293   1.350       .  A
N1286      C1294   1.351       .  A
N1287      C1292   1.354       .  A
N1287      C1291   1.359       .  A
N1287      H1318   1.039       .  S
N1288      C1295   1.353       .  A
N1288      C1296   1.350       .  A
C1289      C1297   1.387       .  A
C1289      C1305   1.413       .  A
C1290      C1306   1.412       .  A
C1290      C1298   1.387       .  A
C1291      C1299   1.385       .  A
C1291      C1308   1.422       .  A
C1292      C1307   1.424       .  A
C1292      C1300   1.389       .  A
C1293      C1305   1.415       .  A
C1293      C1301   1.388       .  A
C1294      C1308   1.408       .  A
C1294      C1302   1.383       .  A
C1295      C1303   1.385       .  A
C1295      C1306   1.416       .  A
C1296      C1304   1.388       .  A
C1296      C1307   1.414       .  A
C1297      C1298   1.377       .  A
C1297      H1309   1.082       .  S
C1298      H1310   1.082       .  S
C1299      C1300   1.380       .  A
C1299      H1311   1.082       .  S
C1300      H1312   1.082       .  S
C1301      C1302   1.370       .  A
C1301      H1313   1.082       .  S
C1302      H1314   1.082       .  S
C1303      C1304   1.367       .  A
C1303      H1315   1.082       .  S
C1304      H1316   1.082       .  S
C1305      C1426   1.489       .  S
C1306      C1412   1.495       .  S
C1307      C1563   1.494       .  S
C1308      C1552   1.508       .  S
N1319      C1324   1.353       .  A
N1319      C1323   1.348       .  A
N1319      H1351   1.037       .  S
N1320      C1327   1.354       .  A
N1320      C1328   1.355       .  A
N1321      C1326   1.359       .  A
N1321      C1325   1.359       .  A
N1321      H1352   1.039       .  S
N1322      C1329   1.352       .  A
N1322      C1330   1.349       .  A
C1323      C1331   1.387       .  A
C1323      C1339   1.411       .  A
C1324      C1340   1.415       .  A
C1324      C1332   1.387       .  A
C1325      C1333   1.388       .  A
C1325      C1342   1.429       .  A
C1326      C1341   1.427       .  A
C1326      C1334   1.386       .  A
C1327      C1339   1.419       .  A
C1327      C1335   1.386       .  A
C1328      C1342   1.418       .  A
C1328      C1336   1.387       .  A
C1329      C1337   1.386       .  A
C1329      C1340   1.414       .  A
C1330      C1338   1.387       .  A
C1330      C1341   1.412       .  A
C1331      C1332   1.378       .  A
C1331      H1343   1.082       .  S
C1332      H1344   1.082       .  S
C1333      C1334   1.381       .  A
C1333      H1345   1.082       .  S
C1334      H1346   1.082       .  S
C1335      C1336   1.370       .  A
C1335      H1347   1.082       .  S
C1336      H1348   1.081       .  S
C1337      C1338   1.372       .  A
C1337      H1349   1.082       .  S
C1338      H1350   1.082       .  S
C1339      C1454   1.492       .  S
C1340      C1440   1.500       .  S
C1341      C1535   1.509       .  S
C1342      C1521   1.514       .  S
C1353      C1354   1.409       .  A
C1353      C1358   1.420       .  A
C1354      C1355   1.413       .  A
C1354      C1359   1.450       .  S
C1355      C1356   1.419       .  A
C1355      C1362   1.451       .  S
C1356      C1357   1.411       .  A
C1357      C1358   1.410       .  A
C1357      C1360   1.452       .  S
C1358      C1361   1.451       .  S
C1359      N1366   1.157       .  T
C1360      N1365   1.157       .  T
C1361      N1363   1.157       .  T
C1362      N1364   1.157       .  T
C1367      C1368   1.413       .  A
C1367      C1372   1.415       .  A
C1368      C1369   1.410       .  A
C1368      C1373   1.453       .  S
C1369      C1370   1.418       .  A
C1369      C1376   1.452       .  S
C1370      C1371   1.412       .  A
C1371      C1372   1.416       .  A
C1371      C1374   1.450       .  S
C1372      C1375   1.450       .  S
C1373      N1380   1.157       .  T
C1374      N1379   1.157       .  T
C1375      N1377   1.157       .  T
C1376      N1378   1.157       .  T
C1381      C1382   1.414       .  A
C1381      C1386   1.412       .  A
C1382      C1383   1.412       .  A
C1382      C1387   1.450       .  S
C1383      C1384   1.411       .  A
C1383      C1390   1.450       .  S
C1384      C1385   1.417       .  A
C1385      C1386   1.409       .  A
C1385      C1388   1.452       .  S
C1386      C1389   1.453       .  S
C1387      N1394   1.157       .  T
C1388      N1393   1.157       .  T
C1389      N1391   1.157       .  T
C1390      N1392   1.157       .  T
C1395      C1396   1.418       .  A
C1395      C1400   1.408       .  A
C1396      C1397   1.409       .  A
C1396      C1401   1.450       .  S
C1397      C1398   1.412       .  A
C1397      C1404   1.453       .  S
C1398      C1399   1.417       .  A
C1399      C1400   1.411       .  A
C1399      C1402   1.451       .  S
C1400      C1403   1.450       .  S
C1401      N1408   1.157   1_565  T
C1402      N1407   1.157       .  T
C1403      N1405   1.157       .  T
C1404      N1406   1.157       .  T
C1409      C1410   1.426       .  A
C1409      C1414   1.422       .  A
C1410      C1411   1.404       .  A
C1410      C1415   1.451       .  S
C1411      C1412   1.406       .  A
C1411      C1418   1.455       .  S
C1412      C1413   1.410       .  A
C1413      C1414   1.418       .  A
C1413      C1416   1.450       .  S
C1414      C1417   1.450       .  S
C1415      N1422   1.157       .  T
C1416      N1421   1.157       .  T
C1417      N1419   1.158       .  T
C1418      N1420   1.157       .  T
C1423      C1424   1.409       .  A
C1423      C1428   1.409       .  A
C1424      C1425   1.407       .  A
C1424      C1429   1.451       .  S
C1425      C1426   1.414       .  A
C1425      C1432   1.451       .  S
C1426      C1427   1.413       .  A
C1427      C1428   1.405       .  A
C1427      C1430   1.451       .  S
C1428      C1431   1.452       .  S
C1429      N1436   1.157       .  T
C1430      N1435   1.157       .  T
C1431      N1433   1.157       .  T
C1432      N1434   1.157       .  T
C1437      C1438   1.411       .  A
C1437      C1442   1.411       .  A
C1438      C1439   1.412       .  A
C1438      C1443   1.450       .  S
C1439      C1440   1.414       .  A
C1439      C1446   1.450       .  S
C1440      C1441   1.413       .  A
C1441      C1442   1.410       .  A
C1441      C1444   1.451       .  S
C1442      C1445   1.451       .  S
C1443      N1450   1.157       .  T
C1444      N1449   1.157       .  T
C1445      N1447   1.157       .  T
C1446      N1448   1.157       .  T
C1451      C1452   1.425       .  A
C1451      C1456   1.423       .  A
C1452      C1453   1.405       .  A
C1452      C1457   1.451       .  S
C1453      C1454   1.405       .  A
C1453      C1460   1.455       .  S
C1454      C1455   1.408       .  A
C1455      C1456   1.416       .  A
C1455      C1458   1.450       .  S
C1456      C1459   1.450       .  S
C1457      N1464   1.157       .  T
C1458      N1463   1.157       .  T
C1459      N1461   1.157       .  T
C1460      N1462   1.157       .  T
C1465      C1466   1.412       .  A
C1465      C1470   1.413       .  A
C1466      C1467   1.406       .  A
C1466      C1471   1.451       .  S
C1467      C1468   1.413       .  A
C1467      C1474   1.452       .  S
C1468      C1469   1.414       .  A
C1469      C1470   1.410       .  A
C1469      C1472   1.450       .  S
C1470      C1473   1.451       .  S
C1471      N1478   1.157       .  T
C1472      N1477   1.157       .  T
C1473      N1475   1.157       .  T
C1474      N1476   1.157       .  T
C1479      C1480   1.425       .  A
C1479      C1484   1.427       .  A
C1480      C1481   1.415       .  A
C1480      C1485   1.449       .  S
C1481      C1482   1.408       .  A
C1481      C1488   1.451       .  S
C1482      C1483   1.407       .  A
C1483      C1484   1.408       .  A
C1483      C1486   1.454       .  S
C1484      C1487   1.452       .  S
C1485      N1492   1.157       .  T
C1486      N1491   1.157       .  T
C1487      N1489   1.158       .  T
C1488      N1490   1.157       .  T
C1493      C1494   1.428       .  A
C1493      C1498   1.426       .  A
C1494      C1495   1.414       .  A
C1494      C1499   1.451       .  S
C1495      C1496   1.404       .  A
C1495      C1502   1.451       .  S
C1496      C1497   1.408       .  A
C1497      C1498   1.409       .  A
C1497      C1500   1.454       .  S
C1498      C1501   1.452       .  S
C1499      N1506   1.158       .  T
C1500      N1505   1.157       .  T
C1501      N1503   1.158       .  T
C1502      N1504   1.157       .  T
C1507      C1508   1.410       .  A
C1507      C1512   1.411       .  A
C1508      C1509   1.408       .  A
C1508      C1513   1.452       .  S
C1509      C1510   1.417       .  A
C1509      C1516   1.451       .  S
C1510      C1511   1.419       .  A
C1511      C1512   1.414       .  A
C1511      C1514   1.450       .  S
C1512      C1515   1.451       .  S
C1513      N1520   1.157       .  T
C1514      N1519   1.158       .  T
C1515      N1517   1.157       .  T
C1516      N1518   1.157       .  T
C1521      C1522   1.409       .  A
C1521      C1526   1.417       .  A
C1522      C1523   1.413       .  A
C1522      C1527   1.454       .  S
C1523      C1524   1.425       .  A
C1523      C1530   1.447       .  S
C1524      C1525   1.419       .  A
C1525      C1526   1.423       .  A
C1525      C1528   1.449       .  S
C1526      C1529   1.450       .  S
C1527      N1534   1.157       .  T
C1528      N1533   1.157       .  T
C1529      N1531   1.157       .  T
C1535      C1536   1.413       .  A
C1535      C1540   1.419       .  A
C1536      C1537   1.416       .  A
C1536      C1541   1.450       .  S
C1537      C1538   1.414       .  A
C1537      C1544   1.448       .  S
C1538      C1539   1.410       .  A
C1539      C1540   1.413       .  A
C1539      C1542   1.451       .  S
C1540      C1543   1.451       .  S
C1541      N1548   1.157       .  T
C1542      N1547   1.157       .  T
C1543      N1545   1.157       .  T
C1544      N1546   1.157       .  T
C1549      C1550   1.412       .  A
C1549      C1554   1.410       .  A
C1550      C1551   1.416       .  A
C1550      C1555   1.449       .  S
C1551      C1552   1.414       .  A
C1551      C1558   1.449       .  S
C1552      C1553   1.418       .  A
C1553      C1554   1.414       .  A
C1553      C1556   1.451       .  S
C1554      C1557   1.452       .  S
C1555      N1562   1.157       .  T
C1556      N1561   1.157       .  T
C1557      N1559   1.157       .  T
C1558      N1560   1.157       .  T
C1563      C1564   1.415       .  A
C1563      C1568   1.405       .  A
C1564      C1565   1.418       .  A
C1564      C1569   1.449       .  S
C1565      C1566   1.415       .  A
C1565      C1572   1.449       .  S
C1566      C1567   1.421       .  A
C1567      C1568   1.402       .  A
C1567      C1570   1.446       .  S
C1568      C1571   1.455       .  S
C1569      N1576   1.157       .  T
C1570      N1575   1.154       .  T
C1571      N1573   1.157       .  T
C1572      N1574   1.157       .  T
C1577      C1578   1.405       .  A
C1577      C1582   1.408       .  A
C1578      C1579   1.403       .  A
C1578      C1583   1.455       .  S
C1579      C1580   1.427       .  A
C1579      C1586   1.450       .  S
C1580      C1581   1.422       .  A
C1581      C1582   1.414       .  A
C1581      C1584   1.450       .  S
C1582      C1585   1.450       .  S
C1583      N1590   1.157       .  T
C1584      N1589   1.158       .  T
C1585      N1587   1.157       .  T
C1586      N1588   1.157       .  T
C1591      C1592   1.415       .  A
C1591      C1596   1.414       .  A
C1592      C1593   1.407       .  A
C1592      C1597   1.450       .  S
C1593      C1594   1.408       .  A
C1593      C1600   1.451       .  S
C1594      C1595   1.413       .  A
C1595      C1596   1.414       .  A
C1595      C1598   1.450       .  S
C1596      C1599   1.450       .  S
C1597      N1604   1.157       .  T
C1598      N1603   1.157       .  T
C1599      N1601   1.157       .  T
C1600      N1602   1.157       .  T
C1605      C1606   1.417       .  A
C1605      C1610   1.417       .  A
C1606      C1607   1.408       .  A
C1606      C1611   1.450       .  S
C1607      C1608   1.408       .  A
C1607      C1614   1.452       .  S
C1608      C1609   1.411       .  A
C1609      C1610   1.414       .  A
C1609      C1612   1.450       .  S
C1610      C1613   1.451       .  S
C1611      N3418   1.157       .  T
C1612      N1617   1.157       .  T
C1613      N1615   1.157       .  T
C1614      N3416   1.157       .  T
N1616      C3414   1.157       .  T
N1618      C3411   1.157       .  T
C1619      C1620   1.406       .  A
C1619      C1624   1.410       .  A
C1620      C1621   1.407       .  A
C1620      C1625   1.454       .  S
C1621      C1622   1.428       .  A
C1621      C1628   1.451       .  S
C1622      C1623   1.422       .  A
C1623      C1624   1.418       .  A
C1623      C1626   1.450       .  S
C1624      C1627   1.450       .  S
C1625      N1632   1.157       .  T
C1626      N1631   1.158       .  T
C1627      N1629   1.157       .  T
C1628      N1630   1.158       .  T
C1633      C1634   1.419       .  A
C1633      C1638   1.418       .  A
C1634      C1635   1.407       .  A
C1634      C1639   1.450       .  S
C1635      C1636   1.410       .  A
C1635      C1642   1.453       .  S
C1636      C1637   1.413       .  A
C1637      C1638   1.418       .  A
C1637      C1640   1.450       .  S
C1638      C1641   1.449       .  S
C1639      N1646   1.156       .  T
C1640      N1645   1.157       .  T
C1641      N1643   1.157       .  T
C1642      N1644   1.157       .  T
C1647      C1648   1.422       .  A
C1647      C1652   1.432       .  A
C1648      C1649   1.416       .  A
C1648      C1653   1.449       .  S
C1649      C1650   1.409       .  A
C1649      C1656   1.450       .  S
C1650      C1651   1.408       .  A
C1651      C1652   1.406       .  A
C1651      C1654   1.457       .  S
C1652      C1655   1.455       .  S
C1653      N1660   1.157       .  T
C1654      N1659   1.158       .  T
C1655      N1657   1.158       .  T
C1656      N1658   1.157       .  T
C1661      C1662   1.423       .  A
C1661      C1666   1.418       .  A
C1662      C1663   1.399       .  A
C1662      C1667   1.453       .  S
C1663      C1664   1.407       .  A
C1663      C1670   1.454       .  S
C1664      C1665   1.415       .  A
C1665      C1666   1.419       .  A
C1665      C1668   1.449       .  S
C1666      C1669   1.449       .  S
C1667      N1674   1.158       .  T
C1668      N1673   1.157       .  T
C1669      N1671   1.158       .  T
C1670      N1672   1.157       .  T
C1675      C1676   1.410       .  A
C1675      C1680   1.413       .  A
C1676      C1677   1.403       .  A
C1676      C1681   1.452       .  S
C1677      C1678   1.412       .  A
C1677      C1684   1.449       .  S
C1678      C1679   1.412       .  A
C1679      C1680   1.409       .  A
C1679      C1682   1.450       .  S
C1680      C1683   1.451       .  S
C1681      N1688   1.157       .  T
C1682      N1687   1.157       .  T
C1683      N1685   1.157       .  T
C1684      N1686   1.156       .  T
C1689      C1690   1.415       .  A
C1689      C1694   1.420       .  A
C1690      C1691   1.418       .  A
C1690      C1695   1.450       .  S
C1691      C1692   1.415       .  A
C1691      C1698   1.450       .  S
C1692      C1693   1.411       .  A
C1693      C1694   1.416       .  A
C1693      C1696   1.451       .  S
C1694      C1697   1.452       .  S
C1695      N1702   1.157       .  T
C1696      N1701   1.157       .  T
C1697      N3499   1.157       .  T
C1698      N1700   1.157       .  T
N1699      C3497   1.157       .  T
C1703      C1704   1.418       .  A
C1703      C1708   1.410       .  A
C1704      C1705   1.411       .  A
C1704      C1709   1.451       .  S
C1705      C1706   1.415       .  A
C1705      C1712   1.449       .  S
C1706      C1707   1.426       .  A
C1707      C1708   1.417       .  A
C1707      C1710   1.451       .  S
C1708      C1711   1.448       .  S
C1709      N1716   1.157       .  T
C1710      N1715   1.157       .  T
C1711      N1713   1.157       .  T
C1712      N1714   1.158       .  T
C1717      C1718   1.411       .  A
C1717      C1722   1.408       .  A
C1718      C1719   1.409       .  A
C1718      C1723   1.451       .  S
C1719      C1720   1.411       .  A
C1719      C1726   1.450       .  S
C1720      C1721   1.413       .  A
C1721      C1722   1.403       .  A
C1721      C1724   1.451       .  S
C1722      C1725   1.452       .  S
C1723      N1730   1.157       .  T
C1724      N1729   1.157       .  T
C1725      N1727   1.157       .  T
C1726      N1728   1.157       .  T
C1731      C1732   1.412       .  A
C1731      C1736   1.409       .  A
C1732      C1733   1.419       .  A
C1732      C1737   1.449       .  S
C1733      C1734   1.417       .  A
C1733      C1740   1.449       .  S
C1734      C1735   1.418       .  A
C1735      C1736   1.405       .  A
C1735      C1738   1.451       .  S
C1736      C1739   1.454       .  S
C1737      N1744   1.157       .  T
C1738      N1743   1.156       .  T
C1739      N1741   1.157       .  T
C1740      N1742   1.157       .  T
C1745      C1746   1.417       .  A
C1745      C1750   1.423       .  A
C1746      C1747   1.420       .  A
C1746      C1751   1.449       .  S
C1747      C1748   1.415       .  A
C1747      C1754   1.450       .  S
C1748      C1749   1.406       .  A
C1749      C1750   1.409       .  A
C1749      C1752   1.454       .  S
C1750      C1753   1.447       .  S
C1751      N1758   1.157       .  T
C1752      N1757   1.157       .  T
C1753      N3555   1.155       .  T
C1754      N1756   1.157       .  T
N1755      C3553   1.155   1_455  T
C1759      C1760   1.413       .  A
C1759      C1764   1.423       .  A
C1760      C1761   1.419       .  A
C1760      C1765   1.449       .  S
C1761      C1762   1.416       .  A
C1761      C1768   1.449       .  S
C1762      C1763   1.409       .  A
C1763      C1764   1.414       .  A
C1763      C1766   1.452       .  S
C1764      C1767   1.452       .  S
C1765      N1772   1.157       .  T
C1766      N1771   1.157       .  T
C1767      N3569   1.157       .  T
C1768      N1770   1.157       .  T
N1769      C3567   1.157       .  T
C1773      C1774   1.406       .  A
C1773      C1778   1.411       .  A
C1774      C1775   1.409       .  A
C1774      C1779   1.454       .  S
C1775      C1776   1.429       .  A
C1775      C1782   1.453       .  S
C1776      C1777   1.420       .  A
C1777      C1778   1.415       .  A
C1777      C1780   1.450       .  S
C1778      C1781   1.451       .  S
C1779      N1786   1.157       .  T
C1780      N1785   1.158       .  T
C1781      N1783   1.157       .  T
C1782      N1784   1.158       .  T
C1787      C1788   1.411       .  A
C1787      C1792   1.412       .  A
C1788      C1789   1.406       .  A
C1788      C1793   1.453       .  S
C1789      C1790   1.418       .  A
C1789      C1796   1.452       .  S
C1790      C1791   1.415       .  A
C1791      C1792   1.414       .  A
C1791      C1794   1.448       .  S
C1792      C1795   1.451       .  S
C1793      N1800   1.157       .  T
C1794      N1799   1.157       .  T
C1795      N1797   1.157       .  T
C1796      N1798   1.157       .  T
N1801      C1806   1.352       .  A
N1801      C1805   1.351       .  A
N1801      H1833   1.040       .  S
N1802      C1809   1.348       .  A
N1802      C1810   1.347       .  A
N1803      C1808   1.352       .  A
N1803      C1807   1.355       .  A
N1803      H1834   1.040       .  S
N1804      C1811   1.355       .  A
N1804      C1812   1.353       .  A
C1805      C1813   1.386       .  A
C1805      C1821   1.413       .  A
C1806      C1822   1.412       .  A
C1806      C1814   1.387       .  A
C1807      C1815   1.385       .  A
C1807      C1824   1.414       .  A
C1808      C1823   1.416       .  A
C1808      C1816   1.389       .  A
C1809      C1821   1.410       .  A
C1809      C1817   1.387       .  A
C1810      C1824   1.407       .  A
C1810      C1818   1.385       .  A
C1811      C1819   1.385       .  A
C1811      C1822   1.420       .  A
C1812      C1820   1.387       .  A
C1812      C1823   1.421       .  A
C1813      C1814   1.375       .  A
C1813      H1825   1.082       .  S
C1814      H1826   1.082       .  S
C1815      C1816   1.374       .  A
C1815      H1827   1.082       .  S
C1816      H1828   1.082       .  S
C1817      C1818   1.376       .  A
C1817      H1829   1.082       .  S
C1818      H1830   1.083       .  S
C1819      C1820   1.383       .  A
C1819      H1831   1.082       .  S
C1820      H1832   1.082       .  S
C1821      C2687   1.496       .  S
C1822      C2662   1.505       .  S
C1823      C2648   1.501       .  S
C1824      C2673   1.496       .  S
N1835      C1840   1.353       .  A
N1835      C1839   1.350       .  A
N1835      H1867   1.042       .  S
N1836      C1843   1.348       .  A
N1836      C1844   1.348       .  A
N1837      C1842   1.355       .  A
N1837      C1841   1.357       .  A
N1837      H1868   1.039       .  S
N1838      C1845   1.357       .  A
N1838      C1846   1.352       .  A
C1839      C1847   1.390       .  A
C1839      C1855   1.414       .  A
C1840      C1856   1.408       .  A
C1840      C1848   1.384       .  A
C1841      C1849   1.382       .  A
C1841      C1858   1.414       .  A
C1842      C1857   1.427       .  A
C1842      C1850   1.391       .  A
C1843      C1855   1.408       .  A
C1843      C1851   1.387       .  A
C1844      C1858   1.408       .  A
C1844      C1852   1.385       .  A
C1845      C1853   1.381       .  A
C1845      C1856   1.416       .  A
C1846      C1854   1.389       .  A
C1846      C1857   1.425       .  A
C1847      C1848   1.372       .  A
C1847      H1859   1.082       .  S
C1848      H1860   1.082       .  S
C1849      C1850   1.374       .  A
C1849      H1861   1.082       .  S
C1850      H1862   1.082       .  S
C1851      C1852   1.373       .  A
C1851      H1863   1.082       .  S
C1852      H1864   1.082       .  S
C1853      C1854   1.381       .  A
C1853      H1865   1.082       .  S
C1854      H1866   1.082       .  S
C1855      C2617   1.484       .  S
C1856      C2589   1.514       .  S
C1857      C2606   1.541       .  S
C1858      C2631   1.497       .  S
N1869      N1870   1.326       .  A
N1869      N1875   1.316       .  A
N1869     Mn2798   2.227       .  S
N1870      C1877   1.360       .  A
N1871      N1873   1.313       .  A
N1871      N1872   1.312       .  A
N1871     Mn1887   2.170       .  S
N1872      C1878   1.346       .  A
N1873      N1874   1.327       .  A
N1873     Mn1898   2.227       .  S
N1874      C1878   1.363       .  A
N1875      N1876   1.314       .  A
N1875     Mn2787   2.186       .  S
N1876      C1877   1.348       .  A
C1877      C2690   1.492       .  S
C1878      C2676   1.504       .  S
N1879      N1885   1.315       .  A
N1879      N1880   1.323       .  A
N1879     Mn1909   2.197       .  S
N1880      C1888   1.354       .  A
N1881      N1882   1.314       .  A
N1881      N1883   1.314       .  A
N1881     Mn2787   2.175       .  S
N1882      C1889   1.347       .  A
N1883      N1884   1.329       .  A
N1883     Mn2809   2.234       .  S
N1884      C1889   1.362       .  A
N1885      N1886   1.314       .  A
N1885     Mn1887   2.186       .  S
N1886      C1888   1.349       .  A
Mn1887     N2775   2.186   1_545  S
Mn1887     N2781   2.175   1_545  S
Mn1887    Cl1911   2.501       .  S
C1888      C2620   1.475       .  S
C1889      C2634   1.496       .  S
N1890      N1891   1.327       .  A
N1890      N1896   1.315       .  A
N1890     Mn1898   2.229       .  S
N1891      C1899   1.361       .  A
N1892      N1894   1.312       .  A
N1892      N1893   1.309       .  A
N1892     Mn2810   2.159       .  S
N1893      C1900   1.344       .  A
N1894      N1895   1.329       .  A
N1894     Mn2798   2.237       .  S
N1895      C1900   1.366       .  A
N1896      N1897   1.316       .  A
N1896     Mn1910   2.192       .  S
N1897      C1899   1.351       .  A
Mn1898     N2769   2.227   1_545  S
Mn1898     N2794   2.237   1_545  S
Mn1898    Cl1911   2.591       .  S
C1899      C2533   1.501       .  S
C1900      C2547   1.509       .  S
N1901      N1902   1.321       .  A
N1901      N1907   1.315       .  A
N1901     Mn2809   2.193       .  S
N1902      C1912   1.354       .  A
N1903      N1904   1.308       .  A
N1903      N1905   1.312       .  A
N1903     Mn1910   2.161       .  S
N1904      C1913   1.344       .  A
N1905      N1906   1.329       .  A
N1905     Mn1909   2.226       .  S
N1906      C1913   1.363       .  A
N1907      N1908   1.315       .  A
N1907     Mn2810   2.193       .  S
N1908      C1912   1.350       .  A
Mn1909     N2783   2.234   1_545  S
Mn1909     N2801   2.193   1_545  S
Mn1909    Cl1911   2.592       .  S
Mn1910     N2792   2.159   1_545  S
Mn1910     N2807   2.193   1_545  S
Mn1910    Cl1911   2.496       .  S
C1912      C2578   1.480       .  S
C1913      C2561   1.499       .  S
N1914      C1919   1.356       .  A
N1914      C1918   1.356       .  A
N1914      H1946   1.038       .  S
N1915      C1922   1.351       .  A
N1915      C1923   1.352       .  A
N1916      C1921   1.353       .  A
N1916      C1920   1.351       .  A
N1916      H1947   1.038       .  S
N1917      C1924   1.349       .  A
N1917      C1925   1.352       .  A
C1918      C1926   1.386       .  A
C1918      C1934   1.418       .  A
C1919      C1935   1.424       .  A
C1919      C1927   1.389       .  A
C1920      C1928   1.384       .  A
C1920      C1937   1.409       .  A
C1921      C1936   1.418       .  A
C1921      C1929   1.390       .  A
C1922      C1934   1.415       .  A
C1922      C1930   1.388       .  A
C1923      C1937   1.410       .  A
C1923      C1931   1.384       .  A
C1924      C1932   1.388       .  A
C1924      C1935   1.417       .  A
C1925      C1933   1.384       .  A
C1925      C1936   1.411       .  A
C1926      C1927   1.377       .  A
C1926      H1938   1.082       .  S
C1927      H1939   1.082       .  S
C1928      C1929   1.370       .  A
C1928      H1940   1.083       .  S
C1929      H1941   1.081       .  S
C1930      C1931   1.373       .  A
C1930      H1942   1.082       .  S
C1931      H1943   1.082       .  S
C1932      C1933   1.375       .  A
C1932      H1944   1.082       .  S
C1933      H1945   1.082       .  S
C1934      C2536   1.500       .  S
C1935      C2505   1.505       .  S
C1936      C2519   1.499       .  S
C1937      C2550   1.495       .  S
N1948      C1953   1.354       .  A
N1948      C1952   1.358       .  A
N1948      H1980   1.033       .  S
N1949      C1956   1.349       .  A
N1949      C1957   1.349       .  A
N1950      C1955   1.356       .  A
N1950      C1954   1.353       .  A
N1950      H1981   1.033       .  S
N1951      C1958   1.349       .  A
N1951      C1959   1.352       .  A
C1952      C1960   1.386       .  A
C1952      C1968   1.420       .  A
C1953      C1969   1.419       .  A
C1953      C1961   1.388       .  A
C1954      C1962   1.391       .  A
C1954      C1971   1.423       .  A
C1955      C1970   1.414       .  A
C1955      C1963   1.384       .  A
C1956      C1968   1.412       .  A
C1956      C1964   1.386       .  A
C1957      C1971   1.411       .  A
C1957      C1965   1.387       .  A
C1958      C1966   1.388       .  A
C1958      C1969   1.412       .  A
C1959      C1967   1.384       .  A
C1959      C1970   1.409       .  A
C1960      C1961   1.370       .  A
C1960      H1972   1.082       .  S
C1961      H1973   1.081       .  S
C1962      C1963   1.369       .  A
C1962      H1974   1.081       .  S
C1963      H1975   1.083       .  S
C1964      C1965   1.372       .  A
C1964      H1976   1.082       .  S
C1965      H1977   1.082       .  S
C1966      C1967   1.371       .  A
C1966      H1978   1.082       .  S
C1967      H1979   1.082       .  S
C1968      C2491   1.501       .  S
C1969      C2575   1.489       .  S
C1970      C2564   1.498       .  S
C1971      C2477   1.492       .  S
N1982      N1983   1.313       .  A
N1982      N1988   1.318       .  A
N1983      C1990   1.342       .  A
N1984      N1986   1.316       .  A
N1984      N1985   1.316       .  A
N1984     Mn2000   2.196       .  S
N1985      C1991   1.347       .  A
N1986      N1987   1.332       .  A
N1987      C1991   1.367       .  A
N1988      N1989   1.333       .  A
N1988     Mn2000   2.264       .  S
N1989      C1990   1.369       .  A
C1990      C2659   1.502       .  S
C1991      C2424   1.515       .  S
N1992      N1998   1.320       .  A
N1992      N1993   1.329       .  A
N1993      C2001   1.360       .  A
N1994      N1995   1.332       .  A
N1994      N1996   1.317       .  A
N1994     Mn2900   2.245       .  S
N1995      C2002   1.367       .  A
N1996      N1997   1.312       .  A
N1997      C2002   1.344       .  A
N1998      N1999   1.316       .  A
N1998     Mn2900   2.206       .  S
N1999      C2001   1.346       .  A
Mn2000     N2894   2.245       .  S
Mn2000     N2898   2.206       .  S
C2001      C2449   1.487       .  S
C2002      C2645   1.506       .  S
N2003      N2004   1.329       .  A
N2003      N2009   1.319       .  A
N2003     Mn2011   2.233       .  S
N2004      C2012   1.361       .  A
N2005      N2007   1.317       .  A
N2005      N2006   1.329       .  A
N2005     Mn2023   2.224       .  S
N2006      C2013   1.362       .  A
N2007      N2008   1.314       .  A
N2007     Mn2011   2.192       .  S
N2008      C2013   1.345       .  A
N2009      N2010   1.316       .  A
N2009     Mn2023   2.206       .  S
N2010      C2012   1.346       .  A
Mn2011    Cl2024   2.546       .  S
C2012      C2438   1.489       .  S
C2013      C2603   1.495       .  S
N2014      N2015   1.313       .  A
N2014      N2020   1.319       .  A
N2014     Mn2022   2.183       .  S
N2015      C2025   1.341       .  A
N2016      N2017   1.309       .  A
N2016      N2018   1.315       .  A
N2016     Mn2923   2.162   1_545  S
N2017      C2026   1.341       .  A
N2018      N2019   1.331       .  A
N2018     Mn2022   2.235       .  S
N2019      C2026   1.366       .  A
N2020      N2021   1.333       .  A
N2020     Mn2923   2.259   1_545  S
N2021      C2025   1.366       .  A
Mn2022    Cl2924   2.546       .  S
Mn2023     N2916   2.162       .  S
Mn2023     N2920   2.259       .  S
Mn2023    Cl2024   2.553       .  S
Cl2024    Mn2922   2.546       .  S
C2025      C2592   1.491       .  S
C2026      C2466   1.494       .  S
N2027      N2028   1.323       .  A
N2027      N2033   1.315       .  A
N2028      C2035   1.356       .  A
N2029      N2031   1.313       .  A
N2029      N2030   1.319       .  A
N2029     Mn2045   2.202       .  S
N2030      C2036   1.355       .  A
N2031      N2032   1.320       .  A
N2031     Mn2056   2.196       .  S
N2032      C2036   1.355       .  A
N2033      N2034   1.319       .  A
N2034      C2035   1.354       .  A
C2035      C2410   1.495       .  S
C2036      C2393   1.508       .  S
N2037      N2043   1.317       .  A
N2037      N2038   1.322       .  A
N2037     Mn2067   2.204       .  S
N2038      C2046   1.354       .  A
N2039      N2040   1.315       .  A
N2039      N2041   1.314       .  A
N2040      C2047   1.351       .  A
N2041      N2042   1.324       .  A
N2042      C2047   1.359       .  A
N2043      N2044   1.317       .  A
N2043     Mn2045   2.197       .  S
N2044      C2046   1.351       .  A
Mn2045    Cl2069   2.527       .  S
C2046      C2368   1.482       .  S
C2047      C2379   1.509       .  S
N2048      N2049   1.327       .  A
N2048      N2054   1.314       .  A
N2048     Mn2056   2.221   1_554  S
N2049      C2057   1.362       .  A
N2050      N2052   1.315       .  A
N2050      N2051   1.317       .  A
N2051      C2058   1.350       .  A
N2052      N2053   1.320       .  A
N2053      C2058   1.350       .  A
N2054      N2055   1.313       .  A
N2054     Mn2068   2.184       .  S
N2055      C2057   1.348       .  A
Mn2056    Cl2069   2.568       .  S
C2057      C2309   1.504       .  S
C2058      C2323   1.469       .  S
N2059      N2060   1.325       .  A
N2059      N2065   1.314       .  A
N2060      C2070   1.361       .  A
N2061      N2062   1.318       .  A
N2061      N2063   1.316       .  A
N2061     Mn2068   2.195       .  S
N2062      C2071   1.350       .  A
N2063      N2064   1.324       .  A
N2063     Mn2067   2.214   1_554  S
N2064      C2071   1.355       .  A
N2065      N2066   1.314       .  A
N2066      C2070   1.349       .  A
Mn2067    Cl2069   2.573       .  S
Mn2068    Cl2069   2.522   1_554  S
C2070      C2351   1.502       .  S
C2071      C2337   1.483       .  S
N2072      C2077   1.356       .  A
N2072      C2076   1.356       .  A
N2072      H2104   1.036       .  S
N2073      C2080   1.350       .  A
N2073      C2081   1.351       .  A
N2074      C2079   1.354       .  A
N2074      C2078   1.354       .  A
N2074      H2105   1.039       .  S
N2075      C2082   1.349       .  A
N2075      C2083   1.350       .  A
C2076      C2084   1.386       .  A
C2076      C2092   1.419       .  A
C2077      C2093   1.421       .  A
C2077      C2085   1.389       .  A
C2078      C2086   1.388       .  A
C2078      C2095   1.417       .  A
C2079      C2094   1.412       .  A
C2079      C2087   1.385       .  A
C2080      C2092   1.416       .  A
C2080      C2088   1.387       .  A
C2081      C2095   1.417       .  A
C2081      C2089   1.386       .  A
C2082      C2090   1.387       .  A
C2082      C2093   1.414       .  A
C2083      C2091   1.385       .  A
C2083      C2094   1.411       .  A
C2084      C2085   1.370       .  A
C2084      H2096   1.082       .  S
C2085      H2097   1.082       .  S
C2086      C2087   1.372       .  A
C2086      H2098   1.082       .  S
C2087      H2099   1.082       .  S
C2088      C2089   1.371       .  A
C2088      H2100   1.082       .  S
C2089      H2101   1.082       .  S
C2090      C2091   1.371       .  A
C2090      H2102   1.082       .  S
C2091      H2103   1.082       .  S
C2092      C2281   1.499       .  S
C2093      C2365   1.495       .  S
C2094      C2382   1.496       .  S
C2095      C2298   1.501       .  S
N2106      C2111   1.353       .  A
N2106      C2110   1.354       .  A
N2106      H2138   1.037       .  S
N2107      C2114   1.348       .  A
N2107      C2115   1.349       .  A
N2108      C2113   1.354       .  A
N2108      C2112   1.357       .  A
N2108      H2139   1.035       .  S
N2109      C2116   1.355       .  A
N2109      C2117   1.356       .  A
C2110      C2118   1.386       .  A
C2110      C2126   1.414       .  A
C2111      C2127   1.417       .  A
C2111      C2119   1.388       .  A
C2112      C2120   1.386       .  A
C2112      C2129   1.424       .  A
C2113      C2128   1.422       .  A
C2113      C2121   1.388       .  A
C2114      C2126   1.407       .  A
C2114      C2122   1.385       .  A
C2115      C2129   1.414       .  A
C2115      C2123   1.388       .  A
C2116      C2124   1.386       .  A
C2116      C2127   1.419       .  A
C2117      C2125   1.387       .  A
C2117      C2128   1.423       .  A
C2118      C2119   1.373       .  A
C2118      H2130   1.082       .  S
C2119      H2131   1.082       .  S
C2120      C2121   1.376       .  A
C2120      H2132   1.082       .  S
C2121      H2133   1.081       .  S
C2122      C2123   1.371       .  A
C2122      H2134   1.082       .  S
C2123      H2135   1.082       .  S
C2124      C2125   1.370       .  A
C2124      H2136   1.082       .  S
C2125      H2137   1.082       .  S
C2126      C2396   1.493       .  S
C2127      C2407   1.498       .  S
C2128      C2267   1.505       .  S
C2129      C2256   1.505       .  S
N2140      N2141   1.321       .  A
N2140      N2146   1.314       .  A
N2140     Mn2169   2.185       .  S
N2141      C2148   1.350       .  A
N2142      N2144   1.312       .  A
N2142      N2143   1.312       .  A
N2142     Mn3058   2.167       .  S
N2143      C2149   1.347       .  A
N2144      N2145   1.325       .  A
N2144     Mn3069   2.216       .  S
N2145      C2149   1.361       .  A
N2146      N2147   1.321       .  A
N2146     Mn2158   2.212       .  S
N2147      C2148   1.356       .  A
C2148      C2494   1.483       .  S
C2149      C2480   1.499       .  S
N2150      N2156   1.315       .  A
N2150      N2151   1.324       .  A
N2150     Mn3080   2.203       .  S
N2151      C2159   1.354       .  A
N2152      N2153   1.313       .  A
N2152      N2154   1.313       .  A
N2153      C2160   1.348       .  A
N2154      N2155   1.327       .  A
N2154     Mn2180   2.236       .  S
N2155      C2160   1.363       .  A
N2156      N2157   1.318       .  A
N2157      C2159   1.351       .  A
Mn2158     N3042   2.167       .  S
Mn2158    Cl2182   2.541       .  S
C2159      C2508   1.482       .  S
C2160      C2522   1.507       .  S
N2161      N2162   1.316       .  A
N2161      N2167   1.316       .  A
N2161     Mn3069   2.174       .  S
N2162      C2170   1.347       .  A
N2163      N2165   1.317       .  A
N2163      N2164   1.320       .  A
N2163     Mn2181   2.201       .  S
N2164      C2171   1.354       .  A
N2165      N2166   1.319       .  A
N2165     Mn2169   2.214       .  S
N2166      C2171   1.354       .  A
N2167      N2168   1.326       .  A
N2167     Mn3081   2.234   1_545  S
N2168      C2170   1.359       .  A
Mn2169     N3044   2.216       .  S
Mn2169     N3061   2.174       .  S
Mn2169    Cl2182   2.542       .  S
C2170      C2253   1.490       .  S
C2171      C2284   1.485       .  S
N2172      N2173   1.317       .  A
N2172      N2178   1.317       .  A
N2172     Mn2180   2.176       .  S
N2173      C2183   1.348       .  A
N2174      N2175   1.319       .  A
N2174      N2176   1.319       .  A
N2175      C2184   1.352       .  A
N2176      N2177   1.323       .  A
N2176     Mn3080   2.234       .  S
N2177      C2184   1.357       .  A
N2178      N2179   1.324       .  A
N2179      C2183   1.357       .  A
Mn2180     N3050   2.203       .  S
Mn2180     N3076   2.234       .  S
Mn2181     N3067   2.234       .  S
Mn2181    Cl2182   2.547       .  S
C2183      C2295   1.486       .  S
C2184      C2270   1.492       .  S
N2185      C2190   1.351       .  A
N2185      C2189   1.349       .  A
N2185      H2217   1.036       .  S
N2186      C2193   1.350       .  A
N2186      C2194   1.351       .  A
N2187      C2192   1.354       .  A
N2187      C2191   1.359       .  A
N2187      H2218   1.039       .  S
N2188      C2195   1.353       .  A
N2188      C2196   1.350       .  A
C2189      C2197   1.387       .  A
C2189      C2205   1.413       .  A
C2190      C2206   1.412       .  A
C2190      C2198   1.387       .  A
C2191      C2199   1.385       .  A
C2191      C2208   1.422       .  A
C2192      C2207   1.424       .  A
C2192      C2200   1.389       .  A
C2193      C2205   1.415       .  A
C2193      C2201   1.388       .  A
C2194      C2208   1.408       .  A
C2194      C2202   1.383       .  A
C2195      C2203   1.385       .  A
C2195      C2206   1.416       .  A
C2196      C2204   1.388       .  A
C2196      C2207   1.414       .  A
C2197      C2198   1.377       .  A
C2197      H2209   1.082       .  S
C2198      H2210   1.082       .  S
C2199      C2200   1.380       .  A
C2199      H2211   1.082       .  S
C2200      H2212   1.082       .  S
C2201      C2202   1.370       .  A
C2201      H2213   1.082       .  S
C2202      H2214   1.082       .  S
C2203      C2204   1.367       .  A
C2203      H2215   1.082       .  S
C2204      H2216   1.082       .  S
C2205      C2326   1.489       .  S
C2206      C2312   1.495       .  S
C2207      C2463   1.494       .  S
C2208      C2452   1.508       .  S
N2219      C2224   1.353       .  A
N2219      C2223   1.348       .  A
N2219      H2251   1.037       .  S
N2220      C2227   1.354       .  A
N2220      C2228   1.355       .  A
N2221      C2226   1.359       .  A
N2221      C2225   1.359       .  A
N2221      H2252   1.039       .  S
N2222      C2229   1.352       .  A
N2222      C2230   1.349       .  A
C2223      C2231   1.387       .  A
C2223      C2239   1.411       .  A
C2224      C2240   1.415       .  A
C2224      C2232   1.387       .  A
C2225      C2233   1.388       .  A
C2225      C2242   1.429       .  A
C2226      C2241   1.427       .  A
C2226      C2234   1.386       .  A
C2227      C2239   1.419       .  A
C2227      C2235   1.386       .  A
C2228      C2242   1.418       .  A
C2228      C2236   1.387       .  A
C2229      C2237   1.386       .  A
C2229      C2240   1.414       .  A
C2230      C2238   1.387       .  A
C2230      C2241   1.412       .  A
C2231      C2232   1.378       .  A
C2231      H2243   1.082       .  S
C2232      H2244   1.082       .  S
C2233      C2234   1.381       .  A
C2233      H2245   1.082       .  S
C2234      H2246   1.082       .  S
C2235      C2236   1.370       .  A
C2235      H2247   1.082       .  S
C2236      H2248   1.081       .  S
C2237      C2238   1.372       .  A
C2237      H2249   1.082       .  S
C2238      H2250   1.082       .  S
C2239      C2354   1.492       .  S
C2240      C2340   1.500       .  S
C2241      C2435   1.509       .  S
C2242      C2421   1.514       .  S
C2253      C2254   1.409       .  A
C2253      C2258   1.420       .  A
C2254      C2255   1.413       .  A
C2254      C2259   1.450       .  S
C2255      C2256   1.419       .  A
C2255      C2262   1.451       .  S
C2256      C2257   1.411       .  A
C2257      C2258   1.410       .  A
C2257      C2260   1.452       .  S
C2258      C2261   1.451       .  S
C2259      N2266   1.157       .  T
C2260      N2265   1.157       .  T
C2261      N2263   1.157   1_545  T
C2262      N2264   1.157       .  T
C2267      C2268   1.413       .  A
C2267      C2272   1.415       .  A
C2268      C2269   1.410       .  A
C2268      C2273   1.453       .  S
C2269      C2270   1.418       .  A
C2269      C2276   1.452       .  S
C2270      C2271   1.412       .  A
C2271      C2272   1.416       .  A
C2271      C2274   1.450       .  S
C2272      C2275   1.450       .  S
C2273      N2280   1.157       .  T
C2274      N2279   1.157       .  T
C2275      N2277   1.157       .  T
C2276      N2278   1.157   1_545  T
C2281      C2282   1.414       .  A
C2281      C2286   1.412       .  A
C2282      C2283   1.412       .  A
C2282      C2287   1.450       .  S
C2283      C2284   1.411       .  A
C2283      C2290   1.450       .  S
C2284      C2285   1.417       .  A
C2285      C2286   1.409       .  A
C2285      C2288   1.452       .  S
C2286      C2289   1.453       .  S
C2287      N2294   1.157       .  T
C2288      N2293   1.157       .  T
C2289      N2291   1.157       .  T
C2290      N2292   1.157       .  T
C2295      C2296   1.418       .  A
C2295      C2300   1.408       .  A
C2296      C2297   1.409       .  A
C2296      C2301   1.450       .  S
C2297      C2298   1.412       .  A
C2297      C2304   1.453       .  S
C2298      C2299   1.417       .  A
C2299      C2300   1.411       .  A
C2299      C2302   1.451       .  S
C2300      C2303   1.450       .  S
C2301      N2308   1.157       .  T
C2302      N2307   1.157       .  T
C2303      N2305   1.157       .  T
C2304      N2306   1.157       .  T
C2309      C2310   1.426       .  A
C2309      C2314   1.422       .  A
C2310      C2311   1.404       .  A
C2310      C2315   1.451       .  S
C2311      C2312   1.406       .  A
C2311      C2318   1.455       .  S
C2312      C2313   1.410       .  A
C2313      C2314   1.418       .  A
C2313      C2316   1.450       .  S
C2314      C2317   1.450       .  S
C2315      N2322   1.157       .  T
C2316      N2321   1.157       .  T
C2317      N2319   1.158       .  T
C2318      N2320   1.157       .  T
C2323      C2324   1.409       .  A
C2323      C2328   1.409       .  A
C2324      C2325   1.407       .  A
C2324      C2329   1.451       .  S
C2325      C2326   1.414       .  A
C2325      C2332   1.451       .  S
C2326      C2327   1.413       .  A
C2327      C2328   1.405       .  A
C2327      C2330   1.451       .  S
C2328      C2331   1.452       .  S
C2329      N2336   1.157       .  T
C2330      N2335   1.157       .  T
C2331      N2333   1.157       .  T
C2332      N2334   1.157       .  T
C2337      C2338   1.411       .  A
C2337      C2342   1.411       .  A
C2338      C2339   1.412       .  A
C2338      C2343   1.450       .  S
C2339      C2340   1.414       .  A
C2339      C2346   1.450       .  S
C2340      C2341   1.413       .  A
C2341      C2342   1.410       .  A
C2341      C2344   1.451       .  S
C2342      C2345   1.451       .  S
C2343      N2350   1.157       .  T
C2344      N2349   1.157       .  T
C2345      N2347   1.157       .  T
C2346      N2348   1.157       .  T
C2351      C2352   1.425       .  A
C2351      C2356   1.423       .  A
C2352      C2353   1.405       .  A
C2352      C2357   1.451       .  S
C2353      C2354   1.405       .  A
C2353      C2360   1.455       .  S
C2354      C2355   1.408       .  A
C2355      C2356   1.416       .  A
C2355      C2358   1.450       .  S
C2356      C2359   1.450       .  S
C2357      N2364   1.157       .  T
C2358      N2363   1.157       .  T
C2359      N2361   1.157       .  T
C2360      N2362   1.157       .  T
C2365      C2366   1.412       .  A
C2365      C2370   1.413       .  A
C2366      C2367   1.406       .  A
C2366      C2371   1.451       .  S
C2367      C2368   1.413       .  A
C2367      C2374   1.452       .  S
C2368      C2369   1.414       .  A
C2369      C2370   1.410       .  A
C2369      C2372   1.450       .  S
C2370      C2373   1.451       .  S
C2371      N2378   1.157       .  T
C2372      N2377   1.157       .  T
C2373      N2375   1.157       .  T
C2374      N2376   1.157       .  T
C2379      C2380   1.425       .  A
C2379      C2384   1.427       .  A
C2380      C2381   1.415       .  A
C2380      C2385   1.449       .  S
C2381      C2382   1.408       .  A
C2381      C2388   1.451       .  S
C2382      C2383   1.407       .  A
C2383      C2384   1.408       .  A
C2383      C2386   1.454       .  S
C2384      C2387   1.452       .  S
C2385      N2392   1.157       .  T
C2386      N2391   1.157       .  T
C2387      N2389   1.158       .  T
C2388      N2390   1.157       .  T
C2393      C2394   1.428       .  A
C2393      C2398   1.426       .  A
C2394      C2395   1.414       .  A
C2394      C2399   1.451       .  S
C2395      C2396   1.404       .  A
C2395      C2402   1.451       .  S
C2396      C2397   1.408       .  A
C2397      C2398   1.409       .  A
C2397      C2400   1.454       .  S
C2398      C2401   1.452       .  S
C2399      N2406   1.158       .  T
C2400      N2405   1.157       .  T
C2401      N2403   1.158       .  T
C2402      N2404   1.157       .  T
C2407      C2408   1.410       .  A
C2407      C2412   1.411       .  A
C2408      C2409   1.408       .  A
C2408      C2413   1.452       .  S
C2409      C2410   1.417       .  A
C2409      C2416   1.451       .  S
C2410      C2411   1.419       .  A
C2411      C2412   1.414       .  A
C2411      C2414   1.450       .  S
C2412      C2415   1.451       .  S
C2413      N2420   1.157       .  T
C2414      N2419   1.158       .  T
C2415      N2417   1.157       .  T
C2416      N2418   1.157       .  T
C2421      C2422   1.409       .  A
C2421      C2426   1.417       .  A
C2422      C2423   1.413       .  A
C2422      C2427   1.454       .  S
C2423      C2424   1.425       .  A
C2423      C2430   1.447       .  S
C2424      C2425   1.419       .  A
C2425      C2426   1.423       .  A
C2425      C2428   1.449       .  S
C2426      C2429   1.450       .  S
C2427      N2434   1.157       .  T
C2428      N2433   1.157       .  T
C2429      N2431   1.157       .  T
C2430      N3332   1.156       .  T
N2432      C3330   1.156   1_545  T
C2435      C2436   1.413       .  A
C2435      C2440   1.419       .  A
C2436      C2437   1.416       .  A
C2436      C2441   1.450       .  S
C2437      C2438   1.414       .  A
C2437      C2444   1.448       .  S
C2438      C2439   1.410       .  A
C2439      C2440   1.413       .  A
C2439      C2442   1.451       .  S
C2440      C2443   1.451       .  S
C2441      N2448   1.157       .  T
C2442      N2447   1.157       .  T
C2443      N2445   1.157       .  T
C2444      N2446   1.157       .  T
C2449      C2450   1.412       .  A
C2449      C2454   1.410       .  A
C2450      C2451   1.416       .  A
C2450      C2455   1.449       .  S
C2451      C2452   1.414       .  A
C2451      C2458   1.449       .  S
C2452      C2453   1.418       .  A
C2453      C2454   1.414       .  A
C2453      C2456   1.451       .  S
C2454      C2457   1.452       .  S
C2455      N2462   1.157       .  T
C2456      N2461   1.157       .  T
C2457      N2459   1.157       .  T
C2458      N2460   1.157       .  T
C2463      C2464   1.415       .  A
C2463      C2468   1.405       .  A
C2464      C2465   1.418       .  A
C2464      C2469   1.449       .  S
C2465      C2466   1.415       .  A
C2465      C2472   1.449       .  S
C2466      C2467   1.421       .  A
C2467      C2468   1.402       .  A
C2467      C2470   1.446       .  S
C2468      C2471   1.455       .  S
C2469      N2476   1.157       .  T
C2470      N2475   1.154   1_545  T
C2471      N2473   1.157       .  T
C2472      N2474   1.157       .  T
C2477      C2478   1.405       .  A
C2477      C2482   1.408       .  A
C2478      C2479   1.403       .  A
C2478      C2483   1.455       .  S
C2479      C2480   1.427       .  A
C2479      C2486   1.450       .  S
C2480      C2481   1.422       .  A
C2481      C2482   1.414       .  A
C2481      C2484   1.450       .  S
C2482      C2485   1.450       .  S
C2483      N2490   1.157       .  T
C2484      N2489   1.158       .  T
C2485      N2487   1.157       .  T
C2486      N2488   1.157       .  T
C2491      C2492   1.415       .  A
C2491      C2496   1.414       .  A
C2492      C2493   1.407       .  A
C2492      C2497   1.450       .  S
C2493      C2494   1.408       .  A
C2493      C2500   1.451       .  S
C2494      C2495   1.413       .  A
C2495      C2496   1.414       .  A
C2495      C2498   1.450       .  S
C2496      C2499   1.450       .  S
C2497      N2504   1.157       .  T
C2498      N2503   1.157       .  T
C2499      N2501   1.157       .  T
C2500      N2502   1.157       .  T
C2505      C2506   1.417       .  A
C2505      C2510   1.417       .  A
C2506      C2507   1.408       .  A
C2506      C2511   1.450       .  S
C2507      C2508   1.408       .  A
C2507      C2514   1.452       .  S
C2508      C2509   1.411       .  A
C2509      C2510   1.414       .  A
C2509      C2512   1.450       .  S
C2510      C2513   1.451       .  S
C2512      N2517   1.157       .  T
C2513      N2515   1.157       .  T
C2519      C2520   1.406       .  A
C2519      C2524   1.410       .  A
C2520      C2521   1.407       .  A
C2520      C2525   1.454       .  S
C2521      C2522   1.428       .  A
C2521      C2528   1.451       .  S
C2522      C2523   1.422       .  A
C2523      C2524   1.418       .  A
C2523      C2526   1.450       .  S
C2524      C2527   1.450       .  S
C2525      N2532   1.157       .  T
C2526      N2531   1.158       .  T
C2527      N2529   1.157       .  T
C2528      N2530   1.158   1_655  T
C2533      C2534   1.419       .  A
C2533      C2538   1.418       .  A
C2534      C2535   1.407       .  A
C2534      C2539   1.450       .  S
C2535      C2536   1.410       .  A
C2535      C2542   1.453       .  S
C2536      C2537   1.413       .  A
C2537      C2538   1.418       .  A
C2537      C2540   1.450       .  S
C2538      C2541   1.449       .  S
C2539      N2546   1.156       .  T
C2540      N2545   1.157       .  T
C2541      N2543   1.157       .  T
C2542      N2544   1.157       .  T
C2547      C2548   1.422       .  A
C2547      C2552   1.432       .  A
C2548      C2549   1.416       .  A
C2548      C2553   1.449       .  S
C2549      C2550   1.409       .  A
C2549      C2556   1.450       .  S
C2550      C2551   1.408       .  A
C2551      C2552   1.406       .  A
C2551      C2554   1.457       .  S
C2552      C2555   1.455       .  S
C2553      N2560   1.157       .  T
C2554      N2559   1.158       .  T
C2555      N2557   1.158       .  T
C2556      N2558   1.157       .  T
C2561      C2562   1.423       .  A
C2561      C2566   1.418       .  A
C2562      C2563   1.399       .  A
C2562      C2567   1.453       .  S
C2563      C2564   1.407       .  A
C2563      C2570   1.454       .  S
C2564      C2565   1.415       .  A
C2565      C2566   1.419       .  A
C2565      C2568   1.449       .  S
C2566      C2569   1.449       .  S
C2567      N2574   1.158       .  T
C2568      N2573   1.157       .  T
C2569      N2571   1.158       .  T
C2570      N2572   1.157       .  T
C2575      C2576   1.410       .  A
C2575      C2580   1.413       .  A
C2576      C2577   1.403       .  A
C2576      C2581   1.452       .  S
C2577      C2578   1.412       .  A
C2577      C2584   1.449       .  S
C2578      C2579   1.412       .  A
C2579      C2580   1.409       .  A
C2579      C2582   1.450       .  S
C2580      C2583   1.451       .  S
C2581      N2588   1.157       .  T
C2582      N2587   1.157       .  T
C2583      N2585   1.157       .  T
C2584      N2586   1.156       .  T
C2589      C2590   1.415       .  A
C2589      C2594   1.420       .  A
C2590      C2591   1.418       .  A
C2590      C2595   1.450       .  S
C2591      C2592   1.415       .  A
C2591      C2598   1.450       .  S
C2592      C2593   1.411       .  A
C2593      C2594   1.416       .  A
C2593      C2596   1.451       .  S
C2594      C2597   1.452       .  S
C2595      N2602   1.157       .  T
C2596      N2601   1.157       .  T
C2598      N2600   1.157       .  T
C2603      C2604   1.418       .  A
C2603      C2608   1.410       .  A
C2604      C2605   1.411       .  A
C2604      C2609   1.451       .  S
C2605      C2606   1.415       .  A
C2605      C2612   1.449       .  S
C2606      C2607   1.426       .  A
C2607      C2608   1.417       .  A
C2607      C2610   1.451       .  S
C2608      C2611   1.448       .  S
C2609      N2616   1.157       .  T
C2610      N2615   1.157       .  T
C2611      N2613   1.157       .  T
C2612      N2614   1.158       .  T
C2617      C2618   1.411       .  A
C2617      C2622   1.408       .  A
C2618      C2619   1.409       .  A
C2618      C2623   1.451       .  S
C2619      C2620   1.411       .  A
C2619      C2626   1.450       .  S
C2620      C2621   1.413       .  A
C2621      C2622   1.403       .  A
C2621      C2624   1.451       .  S
C2622      C2625   1.452       .  S
C2623      N2630   1.157       .  T
C2624      N2629   1.157       .  T
C2625      N2627   1.157       .  T
C2626      N2628   1.157       .  T
C2631      C2632   1.412       .  A
C2631      C2636   1.409       .  A
C2632      C2633   1.419       .  A
C2632      C2637   1.449       .  S
C2633      C2634   1.417       .  A
C2633      C2640   1.449       .  S
C2634      C2635   1.418       .  A
C2635      C2636   1.405       .  A
C2635      C2638   1.451       .  S
C2636      C2639   1.454       .  S
C2637      N2644   1.157       .  T
C2638      N2643   1.156       .  T
C2639      N2641   1.157       .  T
C2640      N2642   1.157       .  T
C2645      C2646   1.417       .  A
C2645      C2650   1.423       .  A
C2646      C2647   1.420       .  A
C2646      C2651   1.449       .  S
C2647      C2648   1.415       .  A
C2647      C2654   1.450       .  S
C2648      C2649   1.406       .  A
C2649      C2650   1.409       .  A
C2649      C2652   1.454       .  S
C2650      C2653   1.447       .  S
C2651      N2658   1.157       .  T
C2652      N2657   1.157       .  T
C2654      N2656   1.157       .  T
C2659      C2660   1.413       .  A
C2659      C2664   1.423       .  A
C2660      C2661   1.419       .  A
C2660      C2665   1.449       .  S
C2661      C2662   1.416       .  A
C2661      C2668   1.449       .  S
C2662      C2663   1.409       .  A
C2663      C2664   1.414       .  A
C2663      C2666   1.452       .  S
C2664      C2667   1.452   1_655  S
C2665      N2672   1.157       .  T
C2666      N2671   1.157   1_655  T
C2668      N2670   1.157       .  T
C2673      C2674   1.406       .  A
C2673      C2678   1.411       .  A
C2674      C2675   1.409       .  A
C2674      C2679   1.454       .  S
C2675      C2676   1.429       .  A
C2675      C2682   1.453       .  S
C2676      C2677   1.420       .  A
C2677      C2678   1.415       .  A
C2677      C2680   1.450       .  S
C2678      C2681   1.451       .  S
C2679      N2686   1.157       .  T
C2680      N2685   1.158       .  T
C2681      N2683   1.157       .  T
C2682      N2684   1.158       .  T
C2687      C2688   1.411       .  A
C2687      C2692   1.412       .  A
C2688      C2689   1.406       .  A
C2688      C2693   1.453       .  S
C2689      C2690   1.418       .  A
C2689      C2696   1.452       .  S
C2690      C2691   1.415       .  A
C2691      C2692   1.414       .  A
C2691      C2694   1.448       .  S
C2692      C2695   1.451       .  S
C2693      N2700   1.157       .  T
C2694      N2699   1.157       .  T
C2695      N2697   1.157       .  T
C2696      N2698   1.157       .  T
N2701      C2706   1.352       .  A
N2701      C2705   1.351       .  A
N2701      H2733   1.040       .  S
N2702      C2709   1.348       .  A
N2702      C2710   1.347       .  A
N2703      C2708   1.352       .  A
N2703      C2707   1.355       .  A
N2703      H2734   1.040       .  S
N2704      C2711   1.355       .  A
N2704      C2712   1.353       .  A
C2705      C2713   1.386       .  A
C2705      C2721   1.413       .  A
C2706      C2722   1.412       .  A
C2706      C2714   1.387       .  A
C2707      C2715   1.385       .  A
C2707      C2724   1.414       .  A
C2708      C2723   1.416       .  A
C2708      C2716   1.389       .  A
C2709      C2721   1.410       .  A
C2709      C2717   1.387       .  A
C2710      C2724   1.407       .  A
C2710      C2718   1.385       .  A
C2711      C2719   1.385       .  A
C2711      C2722   1.420       .  A
C2712      C2720   1.387       .  A
C2712      C2723   1.421       .  A
C2713      C2714   1.375       .  A
C2713      H2725   1.082       .  S
C2714      H2726   1.082       .  S
C2715      C2716   1.374       .  A
C2715      H2727   1.082       .  S
C2716      H2728   1.082       .  S
C2717      C2718   1.377       .  A
C2717      H2729   1.082       .  S
C2718      H2730   1.083       .  S
C2719      C2720   1.383       .  A
C2719      H2731   1.082       .  S
C2720      H2732   1.082       .  S
C2721      C3587   1.496       .  S
C2722      C3562   1.505       .  S
C2723      C3548   1.501       .  S
C2724      C3573   1.496       .  S
N2735      C2740   1.353       .  A
N2735      C2739   1.350       .  A
N2735      H2767   1.042       .  S
N2736      C2743   1.348       .  A
N2736      C2744   1.348       .  A
N2737      C2742   1.355       .  A
N2737      C2741   1.357       .  A
N2737      H2768   1.039       .  S
N2738      C2745   1.357       .  A
N2738      C2746   1.352       .  A
C2739      C2747   1.390       .  A
C2739      C2755   1.414       .  A
C2740      C2756   1.408       .  A
C2740      C2748   1.384       .  A
C2741      C2749   1.382       .  A
C2741      C2758   1.414       .  A
C2742      C2757   1.427       .  A
C2742      C2750   1.391       .  A
C2743      C2755   1.408       .  A
C2743      C2751   1.387       .  A
C2744      C2758   1.408       .  A
C2744      C2752   1.385       .  A
C2745      C2753   1.381       .  A
C2745      C2756   1.416       .  A
C2746      C2754   1.389       .  A
C2746      C2757   1.425       .  A
C2747      C2748   1.372       .  A
C2747      H2759   1.082       .  S
C2748      H2760   1.082       .  S
C2749      C2750   1.374       .  A
C2749      H2761   1.082       .  S
C2750      H2762   1.082       .  S
C2751      C2752   1.373       .  A
C2751      H2763   1.082       .  S
C2752      H2764   1.082       .  S
C2753      C2754   1.381       .  A
C2753      H2765   1.082       .  S
C2754      H2766   1.082       .  S
C2755      C3517   1.484       .  S
C2756      C3489   1.514       .  S
C2757      C3506   1.541       .  S
C2758      C3531   1.497       .  S
N2769      N2770   1.326       .  A
N2769      N2775   1.316       .  A
N2770      C2777   1.360       .  A
N2771      N2773   1.313       .  A
N2771      N2772   1.312       .  A
N2771     Mn2787   2.170       .  S
N2772      C2778   1.346       .  A
N2773      N2774   1.327       .  A
N2773     Mn2798   2.227       .  S
N2774      C2778   1.363       .  A
N2775      N2776   1.314       .  A
N2776      C2777   1.348       .  A
C2777      C3590   1.492       .  S
C2778      C3576   1.504       .  S
N2779      N2785   1.315       .  A
N2779      N2780   1.323       .  A
N2779     Mn2809   2.197       .  S
N2780      C2788   1.354       .  A
N2781      N2782   1.314       .  A
N2781      N2783   1.314       .  A
N2782      C2789   1.347       .  A
N2783      N2784   1.329       .  A
N2784      C2789   1.362       .  A
N2785      N2786   1.314       .  A
N2785     Mn2787   2.186       .  S
N2786      C2788   1.349       .  A
Mn2787    Cl2811   2.501       .  S
C2788      C3520   1.475       .  S
C2789      C3534   1.496       .  S
N2790      N2791   1.327       .  A
N2790      N2796   1.315       .  A
N2790     Mn2798   2.229       .  S
N2791      C2799   1.361       .  A
N2792      N2794   1.312       .  A
N2792      N2793   1.309       .  A
N2793      C2800   1.344       .  A
N2794      N2795   1.329       .  A
N2795      C2800   1.366       .  A
N2796      N2797   1.316       .  A
N2796     Mn2810   2.192       .  S
N2797      C2799   1.351       .  A
Mn2798    Cl2811   2.591       .  S
C2799      C3433   1.501       .  S
C2800      C3447   1.509       .  S
N2801      N2802   1.321       .  A
N2801      N2807   1.315       .  A
N2802      C2812   1.354       .  A
N2803      N2804   1.308       .  A
N2803      N2805   1.312       .  A
N2803     Mn2810   2.161       .  S
N2804      C2813   1.344       .  A
N2805      N2806   1.329       .  A
N2805     Mn2809   2.226       .  S
N2806      C2813   1.363       .  A
N2807      N2808   1.315       .  A
N2808      C2812   1.350       .  A
Mn2809    Cl2811   2.592       .  S
Mn2810    Cl2811   2.496       .  S
C2812      C3478   1.480       .  S
C2813      C3461   1.499       .  S
N2814      C2819   1.356       .  A
N2814      C2818   1.356       .  A
N2814      H2846   1.038       .  S
N2815      C2822   1.351       .  A
N2815      C2823   1.352       .  A
N2816      C2821   1.353       .  A
N2816      C2820   1.351       .  A
N2816      H2847   1.038       .  S
N2817      C2824   1.349       .  A
N2817      C2825   1.352       .  A
C2818      C2826   1.386       .  A
C2818      C2834   1.418       .  A
C2819      C2835   1.424       .  A
C2819      C2827   1.389       .  A
C2820      C2828   1.384       .  A
C2820      C2837   1.409       .  A
C2821      C2836   1.418       .  A
C2821      C2829   1.390       .  A
C2822      C2834   1.415       .  A
C2822      C2830   1.388       .  A
C2823      C2837   1.410       .  A
C2823      C2831   1.384       .  A
C2824      C2832   1.388       .  A
C2824      C2835   1.417       .  A
C2825      C2833   1.384       .  A
C2825      C2836   1.411       .  A
C2826      C2827   1.377       .  A
C2826      H2838   1.082       .  S
C2827      H2839   1.082       .  S
C2828      C2829   1.370       .  A
C2828      H2840   1.083       .  S
C2829      H2841   1.081       .  S
C2830      C2831   1.373       .  A
C2830      H2842   1.082       .  S
C2831      H2843   1.082       .  S
C2832      C2833   1.375       .  A
C2832      H2844   1.082       .  S
C2833      H2845   1.082       .  S
C2834      C3436   1.500       .  S
C2835      C3405   1.505       .  S
C2836      C3419   1.499       .  S
C2837      C3450   1.495       .  S
N2848      C2853   1.354       .  A
N2848      C2852   1.358       .  A
N2848      H2880   1.033       .  S
N2849      C2856   1.349       .  A
N2849      C2857   1.349       .  A
N2850      C2855   1.356       .  A
N2850      C2854   1.353       .  A
N2850      H2881   1.033       .  S
N2851      C2858   1.349       .  A
N2851      C2859   1.352       .  A
C2852      C2860   1.386       .  A
C2852      C2868   1.420       .  A
C2853      C2869   1.419       .  A
C2853      C2861   1.388       .  A
C2854      C2862   1.391       .  A
C2854      C2871   1.423       .  A
C2855      C2870   1.414       .  A
C2855      C2863   1.384       .  A
C2856      C2868   1.412       .  A
C2856      C2864   1.386       .  A
C2857      C2871   1.411       .  A
C2857      C2865   1.387       .  A
C2858      C2866   1.388       .  A
C2858      C2869   1.412       .  A
C2859      C2867   1.384       .  A
C2859      C2870   1.409       .  A
C2860      C2861   1.370       .  A
C2860      H2872   1.082       .  S
C2861      H2873   1.081       .  S
C2862      C2863   1.369       .  A
C2862      H2874   1.081       .  S
C2863      H2875   1.083       .  S
C2864      C2865   1.372       .  A
C2864      H2876   1.082       .  S
C2865      H2877   1.082       .  S
C2866      C2867   1.371       .  A
C2866      H2878   1.082       .  S
C2867      H2879   1.082       .  S
C2868      C3391   1.501       .  S
C2869      C3475   1.489       .  S
C2870      C3464   1.498       .  S
C2871      C3377   1.492       .  S
N2882      N2883   1.313       .  A
N2882      N2888   1.318       .  A
N2883      C2890   1.342       .  A
N2884      N2886   1.316       .  A
N2884      N2885   1.316       .  A
N2884     Mn2900   2.196   1_565  S
N2885      C2891   1.347       .  A
N2886      N2887   1.332       .  A
N2887      C2891   1.367       .  A
N2888      N2889   1.333       .  A
N2888     Mn2900   2.264   1_565  S
N2889      C2890   1.369       .  A
C2890      C3559   1.502       .  S
C2891      C3324   1.515       .  S
N2892      N2898   1.320       .  A
N2892      N2893   1.329       .  A
N2893      C2901   1.360       .  A
N2894      N2895   1.332       .  A
N2894      N2896   1.317       .  A
N2895      C2902   1.367       .  A
N2896      N2897   1.312       .  A
N2897      C2902   1.344       .  A
N2898      N2899   1.316       .  A
N2899      C2901   1.346       .  A
C2901      C3349   1.487       .  S
C2902      C3545   1.506       .  S
N2903      N2904   1.329       .  A
N2903      N2909   1.319       .  A
N2903     Mn2911   2.233       .  S
N2904      C2912   1.361       .  A
N2905      N2907   1.317       .  A
N2905      N2906   1.329       .  A
N2905     Mn2923   2.224       .  S
N2906      C2913   1.362       .  A
N2907      N2908   1.314       .  A
N2907     Mn2911   2.192       .  S
N2908      C2913   1.345       .  A
N2909      N2910   1.316       .  A
N2909     Mn2923   2.206       .  S
N2910      C2912   1.346       .  A
Mn2911    Cl2924   2.546   1_565  S
C2912      C3338   1.489       .  S
C2913      C3503   1.495       .  S
N2914      N2915   1.313       .  A
N2914      N2920   1.319       .  A
N2914     Mn2922   2.183       .  S
N2915      C2925   1.341       .  A
N2916      N2917   1.309       .  A
N2916      N2918   1.315       .  A
N2917      C2926   1.341       .  A
N2918      N2919   1.331       .  A
N2918     Mn2922   2.235       .  S
N2919      C2926   1.366       .  A
N2920      N2921   1.333       .  A
N2921      C2925   1.366       .  A
Mn2923    Cl2924   2.553   1_565  S
C2925      C3492   1.491       .  S
C2926      C3366   1.494       .  S
N2927      N2928   1.323       .  A
N2927      N2933   1.315       .  A
N2928      C2935   1.356       .  A
N2929      N2931   1.313       .  A
N2929      N2930   1.319       .  A
N2929     Mn2945   2.202       .  S
N2930      C2936   1.355       .  A
N2931      N2932   1.320       .  A
N2931     Mn2956   2.196       .  S
N2932      C2936   1.355       .  A
N2933      N2934   1.319       .  A
N2934      C2935   1.354       .  A
C2935      C3310   1.495       .  S
C2936      C3293   1.508       .  S
N2937      N2943   1.317       .  A
N2937      N2938   1.322       .  A
N2937     Mn2967   2.204       .  S
N2938      C2946   1.354       .  A
N2939      N2940   1.315       .  A
N2939      N2941   1.314       .  A
N2940      C2947   1.351       .  A
N2941      N2942   1.324       .  A
N2942      C2947   1.359       .  A
N2943      N2944   1.317       .  A
N2943     Mn2945   2.197       .  S
N2944      C2946   1.351       .  A
Mn2945    Cl2969   2.527       .  S
C2946      C3268   1.482       .  S
C2947      C3279   1.509       .  S
N2948      N2949   1.327       .  A
N2948      N2954   1.314       .  A
N2948     Mn2956   2.221   1_554  S
N2949      C2957   1.362       .  A
N2950      N2952   1.315       .  A
N2950      N2951   1.317       .  A
N2951      C2958   1.350       .  A
N2952      N2953   1.320       .  A
N2953      C2958   1.350       .  A
N2954      N2955   1.313       .  A
N2954     Mn2968   2.184       .  S
N2955      C2957   1.348       .  A
Mn2956    Cl2969   2.568       .  S
C2957      C3209   1.504       .  S
C2958      C3223   1.469       .  S
N2959      N2960   1.325       .  A
N2959      N2965   1.314       .  A
N2960      C2970   1.361       .  A
N2961      N2962   1.318       .  A
N2961      N2963   1.316       .  A
N2961     Mn2968   2.195       .  S
N2962      C2971   1.350       .  A
N2963      N2964   1.324       .  A
N2963     Mn2967   2.214   1_554  S
N2964      C2971   1.355       .  A
N2965      N2966   1.314       .  A
N2966      C2970   1.349       .  A
Mn2967    Cl2969   2.573       .  S
Mn2968    Cl2969   2.522   1_554  S
C2970      C3251   1.502       .  S
C2971      C3237   1.483       .  S
N2972      C2977   1.356       .  A
N2972      C2976   1.356       .  A
N2972      H3004   1.036       .  S
N2973      C2980   1.350       .  A
N2973      C2981   1.351       .  A
N2974      C2979   1.354       .  A
N2974      C2978   1.354       .  A
N2974      H3005   1.039       .  S
N2975      C2982   1.349       .  A
N2975      C2983   1.350       .  A
C2976      C2984   1.386       .  A
C2976      C2992   1.419       .  A
C2977      C2993   1.421       .  A
C2977      C2985   1.389       .  A
C2978      C2986   1.388       .  A
C2978      C2995   1.417       .  A
C2979      C2994   1.412       .  A
C2979      C2987   1.385       .  A
C2980      C2992   1.416       .  A
C2980      C2988   1.387       .  A
C2981      C2995   1.417       .  A
C2981      C2989   1.386       .  A
C2982      C2990   1.387       .  A
C2982      C2993   1.414       .  A
C2983      C2991   1.385       .  A
C2983      C2994   1.411       .  A
C2984      C2985   1.370       .  A
C2984      H2996   1.082       .  S
C2985      H2997   1.082       .  S
C2986      C2987   1.372       .  A
C2986      H2998   1.082       .  S
C2987      H2999   1.082       .  S
C2988      C2989   1.371       .  A
C2988      H3000   1.082       .  S
C2989      H3001   1.082       .  S
C2990      C2991   1.371       .  A
C2990      H3002   1.082       .  S
C2991      H3003   1.082       .  S
C2992      C3181   1.499       .  S
C2993      C3265   1.495       .  S
C2994      C3282   1.496       .  S
C2995      C3198   1.501       .  S
N3006      C3011   1.353       .  A
N3006      C3010   1.354       .  A
N3006      H3038   1.037       .  S
N3007      C3014   1.348       .  A
N3007      C3015   1.349       .  A
N3008      C3013   1.354       .  A
N3008      C3012   1.357       .  A
N3008      H3039   1.035       .  S
N3009      C3016   1.355       .  A
N3009      C3017   1.356       .  A
C3010      C3018   1.386       .  A
C3010      C3026   1.414       .  A
C3011      C3027   1.417       .  A
C3011      C3019   1.388       .  A
C3012      C3020   1.386       .  A
C3012      C3029   1.424       .  A
C3013      C3028   1.422       .  A
C3013      C3021   1.388       .  A
C3014      C3026   1.407       .  A
C3014      C3022   1.385       .  A
C3015      C3029   1.414       .  A
C3015      C3023   1.388       .  A
C3016      C3024   1.386       .  A
C3016      C3027   1.419       .  A
C3017      C3025   1.387       .  A
C3017      C3028   1.423       .  A
C3018      C3019   1.373       .  A
C3018      H3030   1.082       .  S
C3019      H3031   1.082       .  S
C3020      C3021   1.376       .  A
C3020      H3032   1.082       .  S
C3021      H3033   1.081       .  S
C3022      C3023   1.371       .  A
C3022      H3034   1.082       .  S
C3023      H3035   1.082       .  S
C3024      C3025   1.370       .  A
C3024      H3036   1.082       .  S
C3025      H3037   1.082       .  S
C3026      C3296   1.493       .  S
C3027      C3307   1.498       .  S
C3028      C3167   1.505       .  S
C3029      C3156   1.505       .  S
N3040      N3041   1.321       .  A
N3040      N3046   1.314       .  A
N3040     Mn3069   2.185   1_565  S
N3041      C3048   1.350       .  A
N3042      N3044   1.312       .  A
N3042      N3043   1.312       .  A
N3043      C3049   1.347       .  A
N3044      N3045   1.325       .  A
N3045      C3049   1.361       .  A
N3046      N3047   1.321       .  A
N3046     Mn3058   2.212   1_565  S
N3047      C3048   1.356       .  A
C3048      C3394   1.483       .  S
C3049      C3380   1.499       .  S
N3050      N3056   1.315       .  A
N3050      N3051   1.324       .  A
N3051      C3059   1.354       .  A
N3052      N3053   1.313       .  A
N3052      N3054   1.313       .  A
N3053      C3060   1.348       .  A
N3054      N3055   1.327       .  A
N3054     Mn3080   2.236   1_565  S
N3055      C3060   1.363       .  A
N3056      N3057   1.318       .  A
N3057      C3059   1.351       .  A
Mn3058    Cl3082   2.541       .  S
C3059      C3408   1.482       .  S
C3060      C3422   1.507       .  S
N3061      N3062   1.316       .  A
N3061      N3067   1.316       .  A
N3062      C3070   1.347       .  A
N3063      N3065   1.317       .  A
N3063      N3064   1.320       .  A
N3063     Mn3081   2.201       .  S
N3064      C3071   1.354       .  A
N3065      N3066   1.319       .  A
N3065     Mn3069   2.214   1_565  S
N3066      C3071   1.354       .  A
N3067      N3068   1.326       .  A
N3068      C3070   1.359       .  A
Mn3069    Cl3082   2.542       .  S
C3070      C3153   1.490       .  S
C3071      C3184   1.485       .  S
N3072      N3073   1.317       .  A
N3072      N3078   1.317       .  A
N3072     Mn3080   2.176   1_565  S
N3073      C3083   1.348       .  A
N3074      N3075   1.319       .  A
N3074      N3076   1.319       .  A
N3075      C3084   1.352       .  A
N3076      N3077   1.323       .  A
N3077      C3084   1.357       .  A
N3078      N3079   1.324       .  A
N3079      C3083   1.357       .  A
Mn3081    Cl3082   2.547   1_565  S
C3083      C3195   1.486       .  S
C3084      C3170   1.492       .  S
N3085      C3090   1.351       .  A
N3085      C3089   1.349       .  A
N3085      H3117   1.036       .  S
N3086      C3093   1.350       .  A
N3086      C3094   1.351       .  A
N3087      C3092   1.354       .  A
N3087      C3091   1.359       .  A
N3087      H3118   1.039       .  S
N3088      C3095   1.353       .  A
N3088      C3096   1.350       .  A
C3089      C3097   1.387       .  A
C3089      C3105   1.413       .  A
C3090      C3106   1.412       .  A
C3090      C3098   1.387       .  A
C3091      C3099   1.385       .  A
C3091      C3108   1.422       .  A
C3092      C3107   1.424       .  A
C3092      C3100   1.389       .  A
C3093      C3105   1.415       .  A
C3093      C3101   1.388       .  A
C3094      C3108   1.408       .  A
C3094      C3102   1.383       .  A
C3095      C3103   1.385       .  A
C3095      C3106   1.416       .  A
C3096      C3104   1.388       .  A
C3096      C3107   1.414       .  A
C3097      C3098   1.377       .  A
C3097      H3109   1.082       .  S
C3098      H3110   1.082       .  S
C3099      C3100   1.380       .  A
C3099      H3111   1.082       .  S
C3100      H3112   1.082       .  S
C3101      C3102   1.370       .  A
C3101      H3113   1.082       .  S
C3102      H3114   1.082       .  S
C3103      C3104   1.367       .  A
C3103      H3115   1.082       .  S
C3104      H3116   1.082       .  S
C3105      C3226   1.489       .  S
C3106      C3212   1.495       .  S
C3107      C3363   1.494       .  S
C3108      C3352   1.508       .  S
N3119      C3124   1.353       .  A
N3119      C3123   1.348       .  A
N3119      H3151   1.037       .  S
N3120      C3127   1.354       .  A
N3120      C3128   1.355       .  A
N3121      C3126   1.359       .  A
N3121      C3125   1.359       .  A
N3121      H3152   1.039       .  S
N3122      C3129   1.352       .  A
N3122      C3130   1.349       .  A
C3123      C3131   1.387       .  A
C3123      C3139   1.411       .  A
C3124      C3140   1.415       .  A
C3124      C3132   1.387       .  A
C3125      C3133   1.388       .  A
C3125      C3142   1.429       .  A
C3126      C3141   1.427       .  A
C3126      C3134   1.386       .  A
C3127      C3139   1.419       .  A
C3127      C3135   1.386       .  A
C3128      C3142   1.418       .  A
C3128      C3136   1.387       .  A
C3129      C3137   1.386       .  A
C3129      C3140   1.414       .  A
C3130      C3138   1.387       .  A
C3130      C3141   1.412       .  A
C3131      C3132   1.378       .  A
C3131      H3143   1.082       .  S
C3132      H3144   1.082       .  S
C3133      C3134   1.381       .  A
C3133      H3145   1.082       .  S
C3134      H3146   1.082       .  S
C3135      C3136   1.370       .  A
C3135      H3147   1.082       .  S
C3136      H3148   1.081       .  S
C3137      C3138   1.372       .  A
C3137      H3149   1.082       .  S
C3138      H3150   1.082       .  S
C3139      C3254   1.492       .  S
C3140      C3240   1.500       .  S
C3141      C3335   1.509       .  S
C3142      C3321   1.514       .  S
C3153      C3154   1.409       .  A
C3153      C3158   1.420       .  A
C3154      C3155   1.413       .  A
C3154      C3159   1.450       .  S
C3155      C3156   1.419       .  A
C3155      C3162   1.451       .  S
C3156      C3157   1.411       .  A
C3157      C3158   1.410       .  A
C3157      C3160   1.452       .  S
C3158      C3161   1.451       .  S
C3159      N3166   1.157       .  T
C3160      N3165   1.157       .  T
C3161      N3163   1.157       .  T
C3162      N3164   1.157       .  T
C3167      C3168   1.413       .  A
C3167      C3172   1.415       .  A
C3168      C3169   1.410       .  A
C3168      C3173   1.453       .  S
C3169      C3170   1.418       .  A
C3169      C3176   1.452       .  S
C3170      C3171   1.412       .  A
C3171      C3172   1.416       .  A
C3171      C3174   1.450       .  S
C3172      C3175   1.450       .  S
C3173      N3180   1.157       .  T
C3174      N3179   1.157       .  T
C3175      N3177   1.157       .  T
C3176      N3178   1.157       .  T
C3181      C3182   1.414       .  A
C3181      C3186   1.412       .  A
C3182      C3183   1.412       .  A
C3182      C3187   1.450       .  S
C3183      C3184   1.411       .  A
C3183      C3190   1.450       .  S
C3184      C3185   1.417       .  A
C3185      C3186   1.409       .  A
C3185      C3188   1.452       .  S
C3186      C3189   1.453       .  S
C3187      N3194   1.157       .  T
C3188      N3193   1.157       .  T
C3189      N3191   1.157       .  T
C3190      N3192   1.157       .  T
C3195      C3196   1.418       .  A
C3195      C3200   1.408       .  A
C3196      C3197   1.409       .  A
C3196      C3201   1.450       .  S
C3197      C3198   1.412       .  A
C3197      C3204   1.453       .  S
C3198      C3199   1.417       .  A
C3199      C3200   1.411       .  A
C3199      C3202   1.451       .  S
C3200      C3203   1.450       .  S
C3201      N3208   1.157   1_565  T
C3202      N3207   1.157       .  T
C3203      N3205   1.157       .  T
C3204      N3206   1.157       .  T
C3209      C3210   1.426       .  A
C3209      C3214   1.422       .  A
C3210      C3211   1.404       .  A
C3210      C3215   1.451       .  S
C3211      C3212   1.406       .  A
C3211      C3218   1.455       .  S
C3212      C3213   1.410       .  A
C3213      C3214   1.418       .  A
C3213      C3216   1.450       .  S
C3214      C3217   1.450       .  S
C3215      N3222   1.157       .  T
C3216      N3221   1.157       .  T
C3217      N3219   1.158       .  T
C3218      N3220   1.157       .  T
C3223      C3224   1.409       .  A
C3223      C3228   1.409       .  A
C3224      C3225   1.407       .  A
C3224      C3229   1.451       .  S
C3225      C3226   1.414       .  A
C3225      C3232   1.451       .  S
C3226      C3227   1.413       .  A
C3227      C3228   1.405       .  A
C3227      C3230   1.451       .  S
C3228      C3231   1.452       .  S
C3229      N3236   1.157       .  T
C3230      N3235   1.157       .  T
C3231      N3233   1.157       .  T
C3232      N3234   1.157       .  T
C3237      C3238   1.411       .  A
C3237      C3242   1.411       .  A
C3238      C3239   1.412       .  A
C3238      C3243   1.450       .  S
C3239      C3240   1.414       .  A
C3239      C3246   1.450       .  S
C3240      C3241   1.413       .  A
C3241      C3242   1.410       .  A
C3241      C3244   1.451       .  S
C3242      C3245   1.451       .  S
C3243      N3250   1.157       .  T
C3244      N3249   1.157       .  T
C3245      N3247   1.157       .  T
C3246      N3248   1.157       .  T
C3251      C3252   1.425       .  A
C3251      C3256   1.423       .  A
C3252      C3253   1.405       .  A
C3252      C3257   1.451       .  S
C3253      C3254   1.405       .  A
C3253      C3260   1.455       .  S
C3254      C3255   1.408       .  A
C3255      C3256   1.416       .  A
C3255      C3258   1.450       .  S
C3256      C3259   1.450       .  S
C3257      N3264   1.157       .  T
C3258      N3263   1.157       .  T
C3259      N3261   1.157       .  T
C3260      N3262   1.157       .  T
C3265      C3266   1.412       .  A
C3265      C3270   1.413       .  A
C3266      C3267   1.406       .  A
C3266      C3271   1.451       .  S
C3267      C3268   1.413       .  A
C3267      C3274   1.452       .  S
C3268      C3269   1.414       .  A
C3269      C3270   1.410       .  A
C3269      C3272   1.450       .  S
C3270      C3273   1.451       .  S
C3271      N3278   1.157       .  T
C3272      N3277   1.157       .  T
C3273      N3275   1.157       .  T
C3274      N3276   1.157       .  T
C3279      C3280   1.425       .  A
C3279      C3284   1.427       .  A
C3280      C3281   1.415       .  A
C3280      C3285   1.449       .  S
C3281      C3282   1.408       .  A
C3281      C3288   1.451       .  S
C3282      C3283   1.407       .  A
C3283      C3284   1.408       .  A
C3283      C3286   1.454       .  S
C3284      C3287   1.452       .  S
C3285      N3292   1.157       .  T
C3286      N3291   1.157       .  T
C3287      N3289   1.158       .  T
C3288      N3290   1.157       .  T
C3293      C3294   1.428       .  A
C3293      C3298   1.426       .  A
C3294      C3295   1.414       .  A
C3294      C3299   1.451       .  S
C3295      C3296   1.404       .  A
C3295      C3302   1.451       .  S
C3296      C3297   1.408       .  A
C3297      C3298   1.409       .  A
C3297      C3300   1.454       .  S
C3298      C3301   1.452       .  S
C3299      N3306   1.158       .  T
C3300      N3305   1.157       .  T
C3301      N3303   1.158       .  T
C3302      N3304   1.157       .  T
C3307      C3308   1.410       .  A
C3307      C3312   1.411       .  A
C3308      C3309   1.408       .  A
C3308      C3313   1.452       .  S
C3309      C3310   1.417       .  A
C3309      C3316   1.451       .  S
C3310      C3311   1.419       .  A
C3311      C3312   1.414       .  A
C3311      C3314   1.450       .  S
C3312      C3315   1.451       .  S
C3313      N3320   1.157       .  T
C3314      N3319   1.158       .  T
C3315      N3317   1.157       .  T
C3316      N3318   1.157       .  T
C3321      C3322   1.409       .  A
C3321      C3326   1.417       .  A
C3322      C3323   1.413       .  A
C3322      C3327   1.454       .  S
C3323      C3324   1.425       .  A
C3323      C3330   1.447       .  S
C3324      C3325   1.419       .  A
C3325      C3326   1.423       .  A
C3325      C3328   1.449       .  S
C3326      C3329   1.450       .  S
C3327      N3334   1.157       .  T
C3328      N3333   1.157       .  T
C3329      N3331   1.157       .  T
C3335      C3336   1.413       .  A
C3335      C3340   1.419       .  A
C3336      C3337   1.416       .  A
C3336      C3341   1.450       .  S
C3337      C3338   1.414       .  A
C3337      C3344   1.448       .  S
C3338      C3339   1.410       .  A
C3339      C3340   1.413       .  A
C3339      C3342   1.451       .  S
C3340      C3343   1.451       .  S
C3341      N3348   1.157       .  T
C3342      N3347   1.157       .  T
C3343      N3345   1.157       .  T
C3344      N3346   1.157       .  T
C3349      C3350   1.412       .  A
C3349      C3354   1.410       .  A
C3350      C3351   1.416       .  A
C3350      C3355   1.449       .  S
C3351      C3352   1.414       .  A
C3351      C3358   1.449       .  S
C3352      C3353   1.418       .  A
C3353      C3354   1.414       .  A
C3353      C3356   1.451       .  S
C3354      C3357   1.452       .  S
C3355      N3362   1.157       .  T
C3356      N3361   1.157       .  T
C3357      N3359   1.157       .  T
C3358      N3360   1.157       .  T
C3363      C3364   1.415       .  A
C3363      C3368   1.405       .  A
C3364      C3365   1.418       .  A
C3364      C3369   1.449       .  S
C3365      C3366   1.415       .  A
C3365      C3372   1.449       .  S
C3366      C3367   1.421       .  A
C3367      C3368   1.402       .  A
C3367      C3370   1.446       .  S
C3368      C3371   1.455       .  S
C3369      N3376   1.157       .  T
C3370      N3375   1.154       .  T
C3371      N3373   1.157       .  T
C3372      N3374   1.157       .  T
C3377      C3378   1.405       .  A
C3377      C3382   1.408       .  A
C3378      C3379   1.403       .  A
C3378      C3383   1.455       .  S
C3379      C3380   1.427       .  A
C3379      C3386   1.450       .  S
C3380      C3381   1.422       .  A
C3381      C3382   1.414       .  A
C3381      C3384   1.450       .  S
C3382      C3385   1.450       .  S
C3383      N3390   1.157       .  T
C3384      N3389   1.158       .  T
C3385      N3387   1.157       .  T
C3386      N3388   1.157       .  T
C3391      C3392   1.415       .  A
C3391      C3396   1.414       .  A
C3392      C3393   1.407       .  A
C3392      C3397   1.450       .  S
C3393      C3394   1.408       .  A
C3393      C3400   1.451       .  S
C3394      C3395   1.413       .  A
C3395      C3396   1.414       .  A
C3395      C3398   1.450       .  S
C3396      C3399   1.450       .  S
C3397      N3404   1.157       .  T
C3398      N3403   1.157       .  T
C3399      N3401   1.157       .  T
C3400      N3402   1.157       .  T
C3405      C3406   1.417       .  A
C3405      C3410   1.417       .  A
C3406      C3407   1.408       .  A
C3406      C3411   1.450       .  S
C3407      C3408   1.408       .  A
C3407      C3414   1.452       .  S
C3408      C3409   1.411       .  A
C3409      C3410   1.414       .  A
C3409      C3412   1.450       .  S
C3410      C3413   1.451       .  S
C3412      N3417   1.157       .  T
C3413      N3415   1.157       .  T
C3419      C3420   1.406       .  A
C3419      C3424   1.410       .  A
C3420      C3421   1.407       .  A
C3420      C3425   1.454       .  S
C3421      C3422   1.428       .  A
C3421      C3428   1.451       .  S
C3422      C3423   1.422       .  A
C3423      C3424   1.418       .  A
C3423      C3426   1.450       .  S
C3424      C3427   1.450       .  S
C3425      N3432   1.157       .  T
C3426      N3431   1.158       .  T
C3427      N3429   1.157       .  T
C3428      N3430   1.158   1_655  T
C3433      C3434   1.419       .  A
C3433      C3438   1.418       .  A
C3434      C3435   1.407       .  A
C3434      C3439   1.450       .  S
C3435      C3436   1.410       .  A
C3435      C3442   1.453       .  S
C3436      C3437   1.413       .  A
C3437      C3438   1.418       .  A
C3437      C3440   1.450       .  S
C3438      C3441   1.449       .  S
C3439      N3446   1.156       .  T
C3440      N3445   1.157       .  T
C3441      N3443   1.157       .  T
C3442      N3444   1.157       .  T
C3447      C3448   1.422       .  A
C3447      C3452   1.432       .  A
C3448      C3449   1.416       .  A
C3448      C3453   1.449       .  S
C3449      C3450   1.409       .  A
C3449      C3456   1.450       .  S
C3450      C3451   1.408       .  A
C3451      C3452   1.406       .  A
C3451      C3454   1.457       .  S
C3452      C3455   1.455       .  S
C3453      N3460   1.157       .  T
C3454      N3459   1.158       .  T
C3455      N3457   1.158       .  T
C3456      N3458   1.157       .  T
C3461      C3462   1.423       .  A
C3461      C3466   1.418       .  A
C3462      C3463   1.399       .  A
C3462      C3467   1.453       .  S
C3463      C3464   1.407       .  A
C3463      C3470   1.454       .  S
C3464      C3465   1.415       .  A
C3465      C3466   1.419       .  A
C3465      C3468   1.449       .  S
C3466      C3469   1.449       .  S
C3467      N3474   1.158       .  T
C3468      N3473   1.157       .  T
C3469      N3471   1.158       .  T
C3470      N3472   1.157       .  T
C3475      C3476   1.410       .  A
C3475      C3480   1.413       .  A
C3476      C3477   1.403       .  A
C3476      C3481   1.452       .  S
C3477      C3478   1.412       .  A
C3477      C3484   1.449       .  S
C3478      C3479   1.412       .  A
C3479      C3480   1.409       .  A
C3479      C3482   1.450       .  S
C3480      C3483   1.451       .  S
C3481      N3488   1.157       .  T
C3482      N3487   1.157       .  T
C3483      N3485   1.157       .  T
C3484      N3486   1.156       .  T
C3489      C3490   1.415       .  A
C3489      C3494   1.420       .  A
C3490      C3491   1.418       .  A
C3490      C3495   1.450       .  S
C3491      C3492   1.415       .  A
C3491      C3498   1.450       .  S
C3492      C3493   1.411       .  A
C3493      C3494   1.416       .  A
C3493      C3496   1.451       .  S
C3494      C3497   1.452       .  S
C3495      N3502   1.157       .  T
C3496      N3501   1.157       .  T
C3498      N3500   1.157       .  T
C3503      C3504   1.418       .  A
C3503      C3508   1.410       .  A
C3504      C3505   1.411       .  A
C3504      C3509   1.451       .  S
C3505      C3506   1.415       .  A
C3505      C3512   1.449       .  S
C3506      C3507   1.426       .  A
C3507      C3508   1.417       .  A
C3507      C3510   1.451       .  S
C3508      C3511   1.448       .  S
C3509      N3516   1.157       .  T
C3510      N3515   1.157       .  T
C3511      N3513   1.157       .  T
C3512      N3514   1.158       .  T
C3517      C3518   1.411       .  A
C3517      C3522   1.408       .  A
C3518      C3519   1.409       .  A
C3518      C3523   1.451       .  S
C3519      C3520   1.411       .  A
C3519      C3526   1.450       .  S
C3520      C3521   1.413       .  A
C3521      C3522   1.403       .  A
C3521      C3524   1.451       .  S
C3522      C3525   1.452       .  S
C3523      N3530   1.157       .  T
C3524      N3529   1.157       .  T
C3525      N3527   1.157       .  T
C3526      N3528   1.157       .  T
C3531      C3532   1.412       .  A
C3531      C3536   1.409       .  A
C3532      C3533   1.419       .  A
C3532      C3537   1.449       .  S
C3533      C3534   1.417       .  A
C3533      C3540   1.449       .  S
C3534      C3535   1.418       .  A
C3535      C3536   1.405       .  A
C3535      C3538   1.451       .  S
C3536      C3539   1.454       .  S
C3537      N3544   1.157       .  T
C3538      N3543   1.156       .  T
C3539      N3541   1.157       .  T
C3540      N3542   1.157       .  T
C3545      C3546   1.417       .  A
C3545      C3550   1.423       .  A
C3546      C3547   1.420       .  A
C3546      C3551   1.449       .  S
C3547      C3548   1.415       .  A
C3547      C3554   1.450       .  S
C3548      C3549   1.406       .  A
C3549      C3550   1.409       .  A
C3549      C3552   1.454       .  S
C3550      C3553   1.447       .  S
C3551      N3558   1.157       .  T
C3552      N3557   1.157       .  T
C3554      N3556   1.157       .  T
C3559      C3560   1.413       .  A
C3559      C3564   1.423       .  A
C3560      C3561   1.419       .  A
C3560      C3565   1.449       .  S
C3561      C3562   1.416       .  A
C3561      C3568   1.449       .  S
C3562      C3563   1.409       .  A
C3563      C3564   1.414       .  A
C3563      C3566   1.452       .  S
C3564      C3567   1.452   1_655  S
C3565      N3572   1.157       .  T
C3566      N3571   1.157   1_655  T
C3568      N3570   1.157       .  T
C3573      C3574   1.406       .  A
C3573      C3578   1.411       .  A
C3574      C3575   1.409       .  A
C3574      C3579   1.454       .  S
C3575      C3576   1.429       .  A
C3575      C3582   1.453       .  S
C3576      C3577   1.420       .  A
C3577      C3578   1.415       .  A
C3577      C3580   1.450       .  S
C3578      C3581   1.451       .  S
C3579      N3586   1.157       .  T
C3580      N3585   1.158       .  T
C3581      N3583   1.157       .  T
C3582      N3584   1.158       .  T
C3587      C3588   1.411       .  A
C3587      C3592   1.412       .  A
C3588      C3589   1.406       .  A
C3588      C3593   1.453       .  S
C3589      C3590   1.418       .  A
C3589      C3596   1.452       .  S
C3590      C3591   1.415       .  A
C3591      C3592   1.414       .  A
C3591      C3594   1.448       .  S
C3592      C3595   1.451       .  S
C3593      N3600   1.157       .  T
C3594      N3599   1.157       .  T
C3595      N3597   1.157       .  T
C3596      N3598   1.157       .  T
