geometry optimzed in LAMMPS
_audit_creation_date              2020-11-30 
_audit_creation_method            'lammps2cif' 
_symmetry_space_group_name_H-M    'P1' 
_symmetry_Int_Tables_number       1 
_symmetry_cell_setting            triclinic 
loop_ 
_symmetry_equiv_pos_as_xyz 
  x,y,z 
_cell_length_a                    43.79950391 
_cell_length_b                    43.74950946595957 
_cell_length_c                    43.741225986229644 
_cell_angle_alpha                 89.75354720767338 
_cell_angle_beta                  89.8486141429821 
_cell_angle_gamma                 90.33214641566492 
loop_ 
_atom_site_label 
_atom_site_type_symbol 
_atom_site_fract_x 
_atom_site_fract_y 
_atom_site_fract_z 
_atom_site_charge 
Zn1        Zn  0.52999904  0.52335520  0.01960684     1.49700
Zn2        Zn  0.47346729  0.52439984  0.97201584     1.49400
Zn3        Zn  0.53021744  0.47734343  0.96281884     1.49100
Zn4        Zn  0.48193121  0.46664540  0.01723638     1.49500
O5          O  0.50381686  0.49797628  0.99288611    -1.81200
O6          O  0.52206825  0.56852263  0.01136375    -0.71800
O7          O  0.47777637  0.51938923  0.92562792    -0.71600
O8          O  0.57441880  0.49047868  0.96743480    -0.71100
O9          O  0.48048737  0.56986306  0.98221396    -0.71800
O10         O  0.57578433  0.51652112  0.01095981    -0.71400
O11         O  0.51763188  0.48855593  0.91952102    -0.72000
O12         O  0.49393985  0.42330906  0.00499261    -0.71400
O13         O  0.42955380  0.51198512  0.98314396    -0.72100
O14         O  0.52853395  0.43060191  0.96832470    -0.71500
O15         O  0.43601401  0.46962651  0.01064440    -0.72000
O16         O  0.49085252  0.47285744  0.06280904    -0.71900
O17         O  0.52056886  0.51436950  0.06474290    -0.71700
C18         C  0.50160751  0.58348315  0.99708994     0.80100
C19         C  0.49642419  0.50508477  0.90843207     0.80600
C20         C  0.58931296  0.50454287  0.98806002     0.79500
C21         C  0.51285345  0.41277866  0.98552953     0.79900
C22         C  0.41863257  0.48888441  0.99749854     0.81100
C23         C  0.50542666  0.49306061  0.07804368     0.80100
Zn24       Zn  0.45957158  0.97578734  0.47275083     1.49700
Zn25       Zn  0.51449379  0.02288165  0.46312655     1.49400
Zn26       Zn  0.46843198  0.03213642  0.51951301     1.49100
Zn27       Zn  0.51611772  0.97578253  0.52077092     1.49500
O28         O  0.48966882  0.00151061  0.49428032    -1.81200
O29         O  0.46350572  0.97953696  0.42638805    -0.71800
O30         O  0.51077841  0.06869104  0.46683627    -0.71600
O31         O  0.42229493  0.02861282  0.51369752    -0.71100
O32         O  0.50262581  0.01134857  0.41971088    -0.71800
O33         O  0.41615161  0.98809380  0.48371375    -0.71400
O34         O  0.48166336  0.07584525  0.50784454    -0.72000
O35         O  0.50826953  0.98480410  0.56651102    -0.71400
O36         O  0.55917999  0.01456030  0.46958095    -0.72100
O37         O  0.47683972  0.02456925  0.56484127    -0.71500
O38         O  0.56134643  0.98511434  0.51117580    -0.72000
O39         O  0.50717294  0.93000299  0.51326083    -0.71900
O40         O  0.46632452  0.93109360  0.48303101    -0.71700
C41         C  0.48167131  0.99423487  0.40882483     0.80100
C42         C  0.49799186  0.08641113  0.48590381     0.80600
C43         C  0.40504933  0.00990938  0.49944633     0.79500
C44         C  0.49229225  0.00509922  0.58004160     0.79900
C45         C  0.57448665  0.00055521  0.48992491     0.81100
C46         C  0.48618407  0.91625507  0.49823897     0.80100
Zn47       Zn  0.98396573  0.52751382  0.53489080     1.49700
Zn48       Zn  0.03164987  0.53014760  0.47936404     1.49400
Zn49       Zn  0.03766929  0.47678181  0.52829062     1.49100
Zn50       Zn  0.98108182  0.47618527  0.48064316     1.49500
O51         O  0.00822914  0.50249350  0.50595854    -1.81200
O52         O  0.99049780  0.57381068  0.52747632    -0.71800
O53         O  0.07700778  0.52539942  0.48449072    -0.71600
O54         O  0.03324494  0.48336615  0.57376836    -0.71100
O55         O  0.02211446  0.57417279  0.48767973    -0.71800
O56         O  0.99595364  0.51731119  0.57932349    -0.71400
O57         O  0.08210026  0.48679287  0.51709793    -0.72000
O58         O  0.98917199  0.43055353  0.48938724    -0.71400
O59         O  0.02313133  0.52180641  0.43521948    -0.72100
O60         O  0.02933823  0.43170747  0.52045255    -0.71500
O61         O  0.98908521  0.48389468  0.43478259    -0.72000
O62         O  0.93595557  0.48570660  0.48993259    -0.71900
O63         O  0.93841432  0.51907158  0.52823908    -0.71700
C64         C  0.00610640  0.58828909  0.50731224     0.80100
C65         C  0.09375358  0.50722726  0.49965700     0.80600
C66         C  0.01611727  0.49955478  0.59072264     0.79500
C67         C  0.00942839  0.41680373  0.50526568     0.79900
C68         C  0.00646160  0.50292798  0.42075256     0.81100
C69         C  0.92288201  0.50296789  0.50949983     0.80100
Zn70       Zn  0.02516047  0.97544118  0.97865731     1.49700
Zn71       Zn  0.02164294  0.02011930  0.03831816     1.49400
Zn72       Zn  0.97328007  0.02604291  0.98347273     1.49100
Zn73       Zn  0.97087233  0.96774565  0.02949994     1.49500
O74         O  0.99782220  0.99714811  0.00754134    -1.81200
O75         O  0.06978318  0.98367486  0.98972512    -0.71800
O76         O  0.01555628  0.06611394  0.03308180    -0.71600
O77         O  0.97845158  0.01904306  0.93761929    -0.71100
O78         O  0.06696006  0.01099346  0.03256948    -0.71800
O79         O  0.01851670  0.98835418  0.93374798    -0.71400
O80         O  0.98539121  0.07033642  0.99244031    -0.72000
O81         O  0.92561794  0.97682736  0.02038959    -0.71400
O82         O  0.00978177  0.00872814  0.08236832    -0.72100
O83         O  0.92824716  0.02037223  0.99382550    -0.71500
O84         O  0.97711188  0.97025906  0.07588868    -0.72000
O85         O  0.98090385  0.92398373  0.01740952    -0.71900
O86         O  0.01690567  0.92921679  0.98161708    -0.71700
C87         C  0.08255352  0.99734498  0.01210324     0.80100
C88         C  0.00146141  0.08245892  0.01350830     0.80600
C89         C  0.99788351  0.00475087  0.92138397     0.79500
C90         C  0.91270822  0.99947843  0.00723082     0.79900
C91         C  0.99249214  0.98780309  0.09335732     0.81100
C92         C  0.99938937  0.91243336  0.99809977     0.80100
C93         C  0.72159153  0.52186537  0.97967066     0.83200
N94         N  0.69061806  0.52341388  0.98261347    -0.75100
C95         C  0.67597579  0.50574526  0.00401328     0.85600
N96         N  0.69251518  0.48664567  0.02211788    -0.75100
C97         C  0.72327394  0.48479532  0.01861858     0.85700
N98         N  0.73762161  0.50247690  0.99756909    -0.76800
C99         C  0.28422668  0.51529971  0.02181180     0.83200
N100        N  0.31486376  0.51937002  0.01888701    -0.75100
C101        C  0.33133848  0.50083191  0.00022216     0.85600
N102        N  0.31673234  0.47856816  0.98391284    -0.75100
C103        C  0.28586863  0.47503429  0.98653783     0.85700
N104        N  0.26990756  0.49333744  0.00552151    -0.76800
C105        C  0.01962081  0.50458636  0.28987759     0.83200
N106        N  0.01691100  0.50437850  0.32086541    -0.75100
C107        C  0.99566309  0.48598397  0.33473125     0.85600
N108        N  0.97729283  0.46795759  0.31726874    -0.75100
C109        C  0.98008849  0.46838478  0.28632787     0.85700
N110        N  0.00118463  0.48664405  0.27281631    -0.76800
C111        C  0.98635242  0.21409715  0.01814024     0.83200
N112        N  0.00354638  0.23089117  0.99850900    -0.75100
C113        C  0.02085763  0.21711549  0.97702083     0.85600
N114        N  0.02074002  0.18607309  0.97484600    -0.75100
C115        C  0.00383009  0.16887199  0.99481558     0.85700
N116        N  0.98656153  0.18304307  0.01648562    -0.76800
C117        C  0.99477272  0.52721871  0.72771159     0.83200
N118        N  0.01462361  0.50721819  0.74006151    -0.75100
C119        C  0.03153272  0.48889782  0.72199122     0.85600
N120        N  0.02856284  0.49053251  0.69099433    -0.75100
C121        C  0.00847073  0.51075735  0.67831458     0.85700
N122        N  0.99160112  0.52899934  0.69689850    -0.76800
Zn123      Zn  0.14231673  0.36322545  0.86358766     1.49700
Zn124      Zn  0.16492242  0.34906846  0.79482894     1.49400
Zn125      Zn  0.21107913  0.34029845  0.84942918     1.49100
Zn126      Zn  0.15576172  0.29424684  0.84119829     1.49500
O127        O  0.16822045  0.33703033  0.83764454    -1.81200
O128        O  0.11738285  0.39263390  0.83604100    -0.71800
O129        O  0.20453874  0.36339768  0.77731701    -0.71600
O130        O  0.21617553  0.36899564  0.88388401    -0.71100
O131        O  0.13501677  0.38209367  0.78944092    -0.71800
O132        O  0.16988979  0.38795741  0.89302431    -0.71400
O133        O  0.23736610  0.35625005  0.81526245    -0.72000
O134        O  0.19035872  0.26731140  0.85396803    -0.71400
O135        O  0.15079062  0.31471699  0.76847244    -0.72100
O136        O  0.22876925  0.29983993  0.86126445    -0.71500
O137        O  0.14085876  0.27724997  0.80153447    -0.72000
O138        O  0.12304489  0.28912784  0.87208873    -0.71900
O139        O  0.11286842  0.33596985  0.88906507    -0.71700
C140        C  0.11764582  0.39695634  0.80707864     0.80100
C141        C  0.23138651  0.36427420  0.78803331     0.80600
C142        C  0.19858951  0.38681452  0.89831161     0.79500
C143        C  0.21789046  0.27289070  0.86108851     0.79900
C144        C  0.14156646  0.28783451  0.77449306     0.81100
C145        C  0.10838890  0.30704286  0.88939111     0.80100
C146        C  0.98527272  0.78009865  0.99058618     0.83200
N147        N  0.00190713  0.76379615  0.01079785    -0.75100
C148        C  0.01777094  0.77799509  0.03309265     0.85600
N149        N  0.01679399  0.80896959  0.03549329    -0.75100
C150        C  0.00045225  0.82572941  0.01494965     0.85700
N151        N  0.98458781  0.81114830  0.99244129    -0.76800
Zn152      Zn  0.86032771  0.66092335  0.79704618     1.49700
Zn153      Zn  0.80368625  0.65642634  0.84200441     1.49400
Zn154      Zn  0.87025076  0.63990030  0.86760004     1.49100
Zn155      Zn  0.85282743  0.70922658  0.84969284     1.49500
O156        O  0.84702608  0.66629320  0.83934051    -1.81200
O157        O  0.82653317  0.64516525  0.77040867    -0.71800
O158        O  0.79565467  0.62356974  0.87239790    -0.71600
O159        O  0.89954961  0.61331749  0.84280152    -0.71100
O160        O  0.78659799  0.64299980  0.80181317    -0.71800
O161        O  0.89375218  0.63085371  0.79518465    -0.71400
O162        O  0.84083267  0.61227842  0.89264626    -0.72000
O163        O  0.88410329  0.71383319  0.88182128    -0.71400
O164        O  0.77945504  0.69231508  0.85591962    -0.72100
O165        O  0.89612022  0.66653159  0.89639793    -0.71500
O166        O  0.81430414  0.72831152  0.86485868    -0.72000
O167        O  0.86655342  0.73439913  0.81374888    -0.71900
O168        O  0.87442451  0.70016778  0.77727048    -0.71700
C169        C  0.79847288  0.63978331  0.77552653     0.80100
C170        C  0.81188036  0.60864789  0.89113918     0.80600
C171        C  0.90642820  0.61328022  0.81441728     0.79500
C172        C  0.89911410  0.69551531  0.89843840     0.79900
C173        C  0.78684350  0.71891259  0.86479381     0.81100
C174        C  0.87444233  0.72757522  0.78670251     0.80100
Zn175      Zn  0.83084583  0.37738596  0.16505630     1.49700
Zn176      Zn  0.83138012  0.32506583  0.11294891     1.49400
Zn177      Zn  0.87927296  0.32232450  0.16876030     1.49100
Zn178      Zn  0.80887346  0.31020718  0.18051917     1.49500
O179        O  0.83783513  0.33390490  0.15656261    -1.81200
O180        O  0.81612827  0.39884896  0.12712121    -0.71800
O181        O  0.86989405  0.30782853  0.09394624    -0.71600
O182        O  0.90135124  0.35839253  0.18696481    -0.71100
O183        O  0.81602696  0.36290977  0.09104853    -0.71800
O184        O  0.86853085  0.39699116  0.18286310    -0.71400
O185        O  0.90240154  0.30477251  0.13301642    -0.72000
O186        O  0.82951131  0.28190087  0.20927600    -0.71400
O187        O  0.79858047  0.29274184  0.10676747    -0.72100
O188        O  0.87909342  0.28970037  0.20162154    -0.71500
O189        O  0.78233406  0.28475421  0.15431331    -0.72000
O190        O  0.78205015  0.33635642  0.20578986    -0.71900
O191        O  0.79768130  0.38388339  0.19669185    -0.71700
C192        C  0.81039734  0.38997400  0.10005349     0.80100
C193        C  0.89553396  0.30001246  0.10517121     0.80600
C194        C  0.89400662  0.38611277  0.19147161     0.79500
C195        C  0.85719420  0.27620644  0.21528283     0.79900
C196        C  0.78097173  0.27953033  0.12588091     0.81100
C197        C  0.78033379  0.36487422  0.21036214     0.80100
Zn198      Zn  0.18441233  0.67818307  0.19281039     1.49700
Zn199      Zn  0.17220402  0.60843149  0.17723049     1.49400
Zn200      Zn  0.11693148  0.65655310  0.17839104     1.49100
Zn201      Zn  0.16762802  0.66057339  0.12487518     1.49500
O202        O  0.16014411  0.65066851  0.16810155    -1.81200
O203        O  0.21387424  0.65571094  0.21850310    -0.71800
O204        O  0.13685005  0.58470662  0.19565731    -0.71600
O205        O  0.11137490  0.68715604  0.21226856    -0.71100
O206        O  0.20606105  0.60655369  0.20853844    -0.71800
O207        O  0.15893915  0.70253551  0.22100998    -0.71400
O208        O  0.09813323  0.61760545  0.19472593    -0.72000
O209        O  0.12923033  0.67705057  0.10539051    -0.71400
O210        O  0.18909349  0.58842761  0.13934352    -0.72100
O211        O  0.09420956  0.67430893  0.14246672    -0.71500
O212        O  0.18509579  0.62406194  0.10290265    -0.72000
O213        O  0.19908511  0.69433255  0.11962544    -0.71900
O214        O  0.20871402  0.70725636  0.16768087    -0.71700
C215        C  0.22002621  0.62774152  0.22261560     0.80100
C216        C  0.10929602  0.59169202  0.20166064     0.80600
C217        C  0.13055229  0.70359525  0.22650320     0.79500
C218        C  0.10248885  0.68215289  0.11562102     0.79900
C219        C  0.19343171  0.59771576  0.11203392     0.81100
C220        C  0.21279441  0.71076591  0.13919692     0.80100
C221        C  0.52260939  0.28081497  0.00253885     0.83200
N222        N  0.52036352  0.31185142  0.00156488    -0.75100
C223        C  0.49842611  0.32531663  0.98403791     0.85600
N224        N  0.47868516  0.30739119  0.96781451    -0.75100
C225        C  0.48146783  0.27638947  0.96844709     0.85700
N226        N  0.50324124  0.26337672  0.98595205    -0.76800
C227        C  0.50665447  0.71511757  0.98072226     0.83200
N228        N  0.50483178  0.68403993  0.98119296    -0.75100
C229        C  0.48199359  0.66975614  0.99717245     0.85600
N230        N  0.46111334  0.68691514  0.01261019    -0.75100
C231        C  0.46341523  0.71798764  0.01241618     0.85700
N232        N  0.48605943  0.73181330  0.99640359    -0.76800
C233        C  0.50894151  0.02300446  0.27296897     0.83200
N234        N  0.48908525  0.00366378  0.25937200    -0.75100
C235        C  0.47076985  0.98524276  0.27637430     0.85600
N236        N  0.47230308  0.98609161  0.30751395    -0.75100
C237        C  0.49235964  0.00561299  0.32141237     0.85700
N238        N  0.51062448  0.02396491  0.30392107    -0.76800
C239        C  0.21391487  0.98437417  0.01926501     0.83200
N240        N  0.23069769  0.99821505  0.99720186    -0.75100
C241        C  0.21699101  0.01194683  0.97323286     0.85600
N242        N  0.18600333  0.01167245  0.97107906    -0.75100
C243        C  0.16878743  0.99805838  0.99338995     0.85700
N244        N  0.18290324  0.98428042  0.01752533    -0.76800
C245        C  0.77628771  0.96702078  0.99240742     0.83200
N246        N  0.76405422  0.99002477  0.00879524    -0.75100
C247        C  0.78211435  0.00956110  0.02445324     0.85600
N248        N  0.81298227  0.00631334  0.02359442    -0.75100
C249        C  0.82569198  0.98309197  0.00724090     0.85700
N250        N  0.80715788  0.96329412  0.99177387    -0.76800
Zn251      Zn  0.63098776  0.85736823  0.86788368     1.49700
Zn252      Zn  0.70163714  0.84337406  0.85374419     1.49400
Zn253      Zn  0.65357375  0.78905633  0.85093209     1.49100
Zn254      Zn  0.65450557  0.84021006  0.79978077     1.49500
O255        O  0.65969907  0.83275151  0.84338702    -1.81200
O256        O  0.65507489  0.88466325  0.89839619    -0.71800
O257        O  0.72595558  0.80670159  0.86488227    -0.71600
O258        O  0.62062752  0.78200185  0.88141208    -0.71100
O259        O  0.70317175  0.87149443  0.88863562    -0.71800
O260        O  0.60309917  0.82835977  0.89283441    -0.71400
O261        O  0.69173347  0.76900223  0.86586047    -0.72000
O262        O  0.64594285  0.80177978  0.77659496    -0.71400
O263        O  0.72414657  0.86348788  0.81933143    -0.72100
O264        O  0.64269928  0.76611389  0.81277388    -0.71500
O265        O  0.69164624  0.85914192  0.78070668    -0.72000
O266        O  0.62044122  0.86872387  0.79253586    -0.71900
O267        O  0.60452850  0.88352123  0.83863128    -0.71700
C268        C  0.68374130  0.88653902  0.90376288     0.80100
C269        C  0.71885015  0.77885170  0.86896034     0.80600
C270        C  0.60243243  0.79927186  0.89579427     0.79500
C271        C  0.64174240  0.77425097  0.78491003     0.79900
C272        C  0.71735162  0.86713773  0.79141296     0.81100
C273        C  0.60314608  0.88458495  0.80941015     0.80100
C274        C  0.51949782  0.97028866  0.71539752     0.83200
N275        N  0.52104089  0.96942157  0.68431875    -0.75100
C276        C  0.50383920  0.98887556  0.66708370     0.85600
N277        N  0.48499425  0.00915614  0.68143017    -0.75100
C278        C  0.48357637  0.00982484  0.71257636     0.85700
N279        N  0.50081565  0.99043884  0.72923700    -0.76800
Zn280      Zn  0.34496144  0.19534276  0.84019100     1.49700
Zn281      Zn  0.36488838  0.12603427  0.85632111     1.49400
Zn282      Zn  0.29552637  0.14291538  0.83661695     1.49100
Zn283      Zn  0.34859208  0.14657222  0.78734899     1.49500
O284        O  0.33879229  0.15233001  0.83049955    -1.81200
O285        O  0.37571139  0.20024729  0.87270265    -0.71800
O286        O  0.33724170  0.09714908  0.88198571    -0.71600
O287        O  0.27191294  0.17853970  0.85301178    -0.71100
O288        O  0.39145978  0.15334542  0.88468592    -0.71800
O289        O  0.30664876  0.21568956  0.85409613    -0.71400
O290        O  0.29040365  0.10865600  0.86577870    -0.72000
O291        O  0.31181865  0.13535674  0.76284048    -0.71400
O292        O  0.39290405  0.09977089  0.82869471    -0.72100
O293        O  0.27479470  0.13173258  0.79752579    -0.71500
O294        O  0.37923120  0.11412339  0.78176825    -0.72000
O295        O  0.36557663  0.18444978  0.76788701    -0.71900
O296        O  0.36051480  0.21924458  0.80434107    -0.71700
C297        C  0.39256416  0.18240423  0.88797698     0.80100
C298        C  0.30828190  0.09309631  0.88236580     0.80600
C299        C  0.27951645  0.20611126  0.85794494     0.79500
C300        C  0.28415568  0.13049373  0.77009030     0.79900
C301        C  0.39519276  0.09787911  0.79959039     0.81100
C302        C  0.36798899  0.21169464  0.77739324     0.80100
Zn303      Zn  0.33829386  0.79483924  0.15341921     1.49700
Zn304      Zn  0.33497279  0.84644538  0.20355871     1.49400
Zn305      Zn  0.35450663  0.86451688  0.13464589     1.49100
Zn306      Zn  0.28544104  0.84342171  0.15115680     1.49500
O307        O  0.32861435  0.83764159  0.16040347    -1.81200
O308        O  0.35710786  0.77486500  0.19016912    -0.71800
O309        O  0.36439888  0.88047712  0.20883217    -0.71600
O310        O  0.37959548  0.83820160  0.10436970    -0.71100
O311        O  0.35272454  0.81067231  0.22576897    -0.71800
O312        O  0.36691428  0.79082368  0.11869937    -0.71400
O313        O  0.38253550  0.89076739  0.16220572    -0.72000
O314        O  0.28007240  0.87719540  0.12157528    -0.71400
O315        O  0.29608411  0.85709208  0.22520554    -0.72100
O316        O  0.32704381  0.89376474  0.11033207    -0.71500
O317        O  0.26131539  0.85454316  0.18840692    -0.72000
O318        O  0.26535995  0.80549041  0.13497758    -0.71900
O319        O  0.30108116  0.77038802  0.14244635    -0.71700
C320        C  0.36042821  0.78405082  0.21746196     0.80100
C321        C  0.38234834  0.89499231  0.19113342     0.80600
C322        C  0.38136028  0.80917311  0.10135769     0.79500
C323        C  0.29805077  0.89545087  0.10779759     0.79900
C324        C  0.26866782  0.85893650  0.21608023     0.81100
C325        C  0.27418225  0.77790421  0.13485525     0.80100
Zn326      Zn  0.68415354  0.18759622  0.17947494     1.49700
Zn327      Zn  0.66887522  0.16909521  0.11098095     1.49400
Zn328      Zn  0.66627147  0.11889731  0.16514842     1.49100
Zn329      Zn  0.61549110  0.17238733  0.16184774     1.49500
O330        O  0.65843981  0.16180018  0.15422197    -1.81200
O331        O  0.71208149  0.21341707  0.15430212    -0.71800
O332        O  0.68709472  0.13126157  0.09200474    -0.71600
O333        O  0.69621665  0.11497776  0.20018482    -0.71100
O334        O  0.70155282  0.20149934  0.10614031    -0.71800
O335        O  0.70975256  0.16329334  0.20802827    -0.71400
O336        O  0.68604859  0.09684686  0.12977532    -0.72000
O337        O  0.59248345  0.13534543  0.17773533    -0.71400
O338        O  0.63262496  0.18559922  0.08776728    -0.72100
O339        O  0.62737137  0.09836761  0.17962352    -0.71500
O340        O  0.59639330  0.18997872  0.12341077    -0.72000
O341        O  0.61116872  0.20501020  0.19458469    -0.71900
O342        O  0.65960068  0.21552492  0.20543430    -0.71700
C343        C  0.71645622  0.21670768  0.12579763     0.80100
C344        C  0.69354463  0.10499990  0.10278280     0.80600
C345        C  0.71181069  0.13504542  0.21422177     0.79500
C346        C  0.60042801  0.10813774  0.18432836     0.79900
C347        C  0.60617146  0.19412702  0.09622460     0.81100
C348        C  0.63126676  0.21987505  0.20939207     0.80100
C349        C  0.48574706  0.53176125  0.21186715     0.83200
N350        N  0.50287878  0.51046399  0.22621787    -0.75100
C351        C  0.52005016  0.49067686  0.20994821     0.85600
N352        N  0.51995037  0.49194684  0.17885054    -0.75100
C353        C  0.50291198  0.51341502  0.16407724     0.85700
N354        N  0.48598076  0.53350156  0.18075858    -0.76800
C355        C  0.79104253  0.51756896  0.50908923     0.83200
N356        N  0.82200899  0.51460737  0.50987974    -0.75100
C357        C  0.83614977  0.49380422  0.49147641     0.85600
N358        N  0.81891537  0.47618485  0.47237924    -0.75100
C359        C  0.78799881  0.47916806  0.47175844     0.85700
N360        N  0.77431197  0.49983569  0.49008742    -0.76800
Zn361      Zn  0.61498266  0.33220555  0.32011399     1.49700
Zn362      Zn  0.66810087  0.38454269  0.32013326     1.49400
Zn363      Zn  0.66596838  0.33377424  0.37339433     1.49100
Zn364      Zn  0.68348523  0.31537187  0.30519155     1.49500
O365        O  0.65786672  0.34171009  0.32983784    -1.81200
O366        O  0.59436995  0.36998578  0.30290733    -0.71800
O367        O  0.68657399  0.40599456  0.35699425    -0.71600
O368        O  0.62833740  0.31702448  0.39462510    -0.71100
O369        O  0.63090483  0.40586441  0.30306089    -0.71800
O370        O  0.59364696  0.31429256  0.35743648    -0.71400
O371        O  0.68466800  0.37083593  0.39400943    -0.72000
O372        O  0.70845953  0.28804043  0.33103853    -0.71400
O373        O  0.70055868  0.38786847  0.28715166    -0.72100
O374        O  0.69691860  0.30042475  0.37887895    -0.71500
O375        O  0.71185995  0.33919990  0.27869813    -0.72000
O376        O  0.65936379  0.28837853  0.27774136    -0.71900
O377        O  0.61092677  0.29951376  0.28732708    -0.71700
C378        C  0.60391963  0.39690911  0.29667426     0.80100
C379        C  0.69251016  0.39718805  0.38414893     0.80600
C380        C  0.60216892  0.30895661  0.38478118     0.79500
C381        C  0.71145775  0.28446863  0.35963238     0.79900
C382        C  0.71589336  0.36746831  0.27349686     0.81100
C383        C  0.63108447  0.28439482  0.27301870     0.80100
C384        C  0.51749359  0.21753929  0.47365558     0.83200
N385        N  0.50149100  0.23587162  0.49253912    -0.75100
C386        C  0.48207890  0.22382760  0.51340137     0.85600
N387        N  0.47851909  0.19308928  0.51558418    -0.75100
C388        C  0.49437818  0.17423245  0.49675878     0.82100
N389        N  0.51404177  0.18655814  0.47561561    -0.76800
C390        C  0.51907662  0.78119115  0.52675033     0.83200
N391        N  0.49852757  0.76753346  0.50813095    -0.75100
C392        C  0.47934912  0.78451550  0.49087594     0.85600
N393        N  0.48073992  0.81558360  0.49219914    -0.75100
C394        C  0.50135667  0.82964847  0.51092125     0.85700
N395        N  0.52059334  0.81223695  0.52808327    -0.76800
Zn396      Zn  0.38275036  0.67688824  0.33206300     1.49700
Zn397      Zn  0.31312512  0.68851346  0.31458019     1.49400
Zn398      Zn  0.33407843  0.62134061  0.33123872     1.49100
Zn399      Zn  0.32948956  0.67354694  0.38332945     1.49500
O400        O  0.34013468  0.66493077  0.34053774    -1.81200
O401        O  0.38518018  0.70967885  0.29924918    -0.71800
O402        O  0.28749331  0.66207224  0.28816629    -0.71600
O403        O  0.37235236  0.60304126  0.31302988    -0.71100
O404        O  0.33638755  0.71608091  0.28708836    -0.71800
O405        O  0.40634575  0.64116920  0.31422558    -0.71400
O406        O  0.30151492  0.61466775  0.29935861    -0.72000
O407        O  0.31405559  0.63502106  0.40387581    -0.71400
O408        O  0.28456691  0.71428694  0.33843408    -0.72100
O409        O  0.31843788  0.59871213  0.36843658    -0.71500
O410        O  0.29488704  0.70397610  0.38703753    -0.72000
O411        O  0.36543711  0.69260570  0.40541838    -0.71900
O412        O  0.40232107  0.69501508  0.37015839    -0.71700
C413        C  0.36444572  0.72232534  0.28343524     0.80100
C414        C  0.28521777  0.63343087  0.28451329     0.80600
C415        C  0.39867053  0.61402284  0.30687383     0.79500
C416        C  0.31025386  0.60761224  0.39488444     0.79900
C417        C  0.27964312  0.71800139  0.36673153     0.81100
C418        C  0.39224593  0.70043843  0.39698072     0.80100
C419        C  0.22431652  0.51931715  0.48505126     0.83200
N420        N  0.19342511  0.51665671  0.48755131    -0.75100
C421        C  0.18096239  0.49787375  0.50933156     0.85600
N422        N  0.19966936  0.48198304  0.52836843    -0.75100
C423        C  0.23044111  0.48491530  0.52575613     0.85700
N424        N  0.24258420  0.50347065  0.50415232    -0.76800
C425        C  0.53299117  0.52263090  0.77359463     0.83200
N426        N  0.53496426  0.52310459  0.80462993    -0.75100
C427        C  0.51383580  0.50785775  0.82196852     0.85600
N428        N  0.49130366  0.49149907  0.80795684    -0.75100
C429        C  0.48986135  0.49078719  0.77690917     0.85700
N430        N  0.51061554  0.50634779  0.75998408    -0.76800
Zn431      Zn  0.35982260  0.34597870  0.70722399     1.49700
Zn432      Zn  0.30648856  0.35089583  0.65863145     1.49400
Zn433      Zn  0.37542942  0.36732616  0.63854181     1.49100
Zn434      Zn  0.35480412  0.29805329  0.65361732     1.49500
O435        O  0.34934524  0.34080067  0.66426653    -1.81200
O436        O  0.32401958  0.35971793  0.73186048    -0.71800
O437        O  0.30206123  0.38442732  0.62861747    -0.71600
O438        O  0.40243911  0.39441485  0.66531604    -0.71100
O439        O  0.28683155  0.36398153  0.69766420    -0.71800
O440        O  0.39165228  0.37771956  0.71234454    -0.71400
O441        O  0.34913353  0.39537042  0.61232567    -0.72000
O442        O  0.38648951  0.29389034  0.62172836    -0.71400
O443        O  0.28203888  0.31542143  0.64284048    -0.72100
O444        O  0.40191570  0.34129167  0.61045251    -0.71500
O445        O  0.31649313  0.27873543  0.63772636    -0.72000
O446        O  0.36738581  0.27299512  0.68969255    -0.71900
O447        O  0.37356023  0.30702744  0.72679745    -0.71700
C448        C  0.29663792  0.36580844  0.72486799     0.80100
C449        C  0.32035344  0.39949770  0.61176624     0.80600
C450        C  0.40587974  0.39549334  0.69424239     0.79500
C451        C  0.40311776  0.31242459  0.60667579     0.79900
C452        C  0.28932964  0.28838788  0.63549537     0.81100
C453        C  0.37404063  0.27975398  0.71706379     0.80100
Zn454      Zn  0.67109296  0.65134929  0.69770545     1.49700
Zn455      Zn  0.65147272  0.63764113  0.62784741     1.49400
Zn456      Zn  0.66596867  0.70624292  0.65100391     1.49100
Zn457      Zn  0.72032259  0.65887542  0.64492968     1.49500
O458        O  0.67699066  0.66323159  0.65499517    -1.81200
O459        O  0.64124463  0.61764290  0.70125972    -0.71800
O460        O  0.62197194  0.66513322  0.60335871    -0.71600
O461        O  0.65150591  0.72406314  0.69054002    -0.71100
O462        O  0.62566226  0.60766752  0.65385141    -0.71800
O463        O  0.65518820  0.68553588  0.72347647    -0.71400
O464        O  0.63263897  0.71174012  0.62092455    -0.72000
O465        O  0.73942656  0.69888710  0.63231297    -0.71400
O466        O  0.67931665  0.61294845  0.59878067    -0.72100
O467        O  0.70155665  0.73205505  0.63783954    -0.71500
O468        O  0.72611258  0.62859862  0.61160440    -0.72000
O469        O  0.74475586  0.64451474  0.68106529    -0.71900
O470        O  0.70986406  0.63824983  0.71755282    -0.71700
C471        C  0.62467963  0.60290089  0.68268313     0.80100
C472        C  0.61736857  0.69397167  0.60388422     0.80600
C473        C  0.64882254  0.71312401  0.71732146     0.79500
C474        C  0.72917528  0.72598121  0.63160710     0.79900
C475        C  0.70836596  0.61208152  0.59568496     0.81100
C476        C  0.73731166  0.63753835  0.70829863     0.80100
C477        C  0.27352789  0.02472280  0.50453620     0.83200
N478        N  0.30450954  0.02212965  0.50414120    -0.75100
C479        C  0.31793543  0.00007111  0.48674410     0.85600
N480        N  0.30006635  0.98081184  0.47001231    -0.75100
C481        C  0.26918375  0.98356837  0.47060389     0.85700
N482        N  0.25613863  0.00544098  0.48784883    -0.76800
C483        C  0.70822450  0.98733331  0.53262333     0.83200
N484        N  0.72199986  0.00549919  0.51161068    -0.75100
C485        C  0.70541595  0.01970650  0.48979696     0.85600
N486        N  0.67454419  0.01561748  0.48888397    -0.75100
C487        C  0.66045411  0.99724496  0.51007988     0.85700
N488        N  0.67750841  0.98317775  0.53190194    -0.76800
C489        C  0.01325424  0.28451645  0.51269648     0.83200
N490        N  0.01297240  0.31564181  0.51132098    -0.75100
C491        C  0.99229652  0.33027746  0.49311842     0.85600
N492        N  0.97205949  0.31337445  0.47647011    -0.75100
C493        C  0.97250096  0.28229826  0.47800110     0.85700
N494        N  0.99305459  0.26813919  0.49606469    -0.76800
C495        C  0.00456521  0.97350567  0.22563365     0.83200
N496        N  0.00563763  0.97699706  0.19466367    -0.75100
C497        C  0.99051893  0.00061649  0.18102964     0.85600
N498        N  0.97453266  0.02061255  0.19869435    -0.75100
C499        C  0.97314097  0.01663068  0.22955440     0.85700
N500        N  0.98827111  0.99324688  0.24278338    -0.76800
C501        C  0.97436300  0.72332772  0.53597590     0.83200
N502        N  0.97290826  0.69232284  0.53847958    -0.75100
C503        C  0.99116072  0.67456349  0.52062191     0.85600
N504        N  0.01077783  0.68823942  0.50036248    -0.75100
C505        C  0.01206627  0.71922801  0.49809228     0.85700
N506        N  0.99387936  0.73651295  0.51587480    -0.76800
Zn507      Zn  0.14063847  0.83454037  0.29797029     1.49700
Zn508      Zn  0.19313573  0.84026285  0.34714460     1.49400
Zn509      Zn  0.12356487  0.85590297  0.36639469     1.49100
Zn510      Zn  0.14489499  0.78659999  0.35258195     1.49500
O511        O  0.15023113  0.82960320  0.34129664    -1.81200
O512        O  0.17663092  0.84947772  0.27351462    -0.71800
O513        O  0.19732475  0.87388844  0.37682262    -0.71600
O514        O  0.09428423  0.88009589  0.33846902    -0.71100
O515        O  0.21327647  0.85381941  0.30826048    -0.71800
O516        O  0.10706888  0.86414501  0.29186172    -0.71400
O517        O  0.15001803  0.88614899  0.39097003    -0.72000
O518        O  0.11463974  0.78205503  0.38601436    -0.71400
O519        O  0.21786314  0.80497965  0.36248233    -0.72100
O520        O  0.09856700  0.82916825  0.39638866    -0.71500
O521        O  0.18397903  0.76721286  0.36647312    -0.72000
O522        O  0.13033664  0.76142674  0.31729865    -0.71900
O523        O  0.12784108  0.79500779  0.27911078    -0.71700
C524        C  0.20394947  0.85577947  0.28089776     0.80100
C525        C  0.17894108  0.88993617  0.39228873     0.80600
C526        C  0.09096176  0.88049824  0.30943474     0.79500
C527        C  0.09806528  0.80030850  0.40108337     0.79900
C528        C  0.21107766  0.77739746  0.36866702     0.81100
C529        C  0.12516866  0.76800592  0.28951175     0.80100
Zn530      Zn  0.83651020  0.14927914  0.29872460     1.49700
Zn531      Zn  0.78316295  0.15234060  0.34729108     1.49400
Zn532      Zn  0.85100017  0.13386456  0.36986206     1.49100
Zn533      Zn  0.83595833  0.20238680  0.34734659     1.49500
O534        O  0.82689915  0.15911448  0.34116925    -1.81200
O535        O  0.80014736  0.13379001  0.27551887    -0.71800
O536        O  0.77570114  0.12079597  0.37920514    -0.71600
O537        O  0.88002446  0.10613674  0.34517666    -0.71100
O538        O  0.76214161  0.13869649  0.30883475    -0.71800
O539        O  0.86901307  0.11820796  0.29685704    -0.71400
O540        O  0.82165933  0.10740413  0.39633904    -0.72000
O541        O  0.86731182  0.20826670  0.37916529    -0.71400
O542        O  0.76207992  0.19048574  0.36081234    -0.72100
O543        O  0.87719710  0.16182891  0.39761893    -0.71500
O544        O  0.79924698  0.22529363  0.36099464    -0.72000
O545        O  0.85055028  0.22330896  0.30913790    -0.71900
O546        O  0.85115171  0.18586719  0.27503956    -0.71700
C547        C  0.77199895  0.13216162  0.28234082     0.80100
C548        C  0.79251006  0.10516144  0.39684125     0.80600
C549        C  0.88419444  0.10316945  0.31638663     0.79500
C550        C  0.88121707  0.19081069  0.39757338     0.79900
C551        C  0.77155214  0.21762818  0.36490224     0.81100
C552        C  0.85507746  0.21368007  0.28219494     0.80100
C553        C  0.03068636  0.02785378  0.78543254     0.83200
N554        N  0.03457384  0.02690087  0.81638907    -0.75100
C555        C  0.01473040  0.01042432  0.83430148     0.85600
N556        N  0.99144380  0.99462693  0.82084854    -0.75100
C557        C  0.98802162  0.99532786  0.78995957     0.85700
N558        N  0.00754624  0.01196156  0.77253725    -0.76800
Zn559      Zn  0.88385612  0.84601630  0.68101361     1.49700
Zn560      Zn  0.82969657  0.89516257  0.68380775     1.49400
Zn561      Zn  0.83198079  0.84686544  0.62850234     1.49100
Zn562      Zn  0.81613144  0.82453234  0.69538359     1.49500
O563        O  0.84064192  0.85336865  0.67204088    -1.81200
O564        O  0.90394128  0.88402394  0.69825636    -0.71800
O565        O  0.81007012  0.91722554  0.64846271    -0.71600
O566        O  0.86968873  0.83262788  0.60653536    -0.71100
O567        O  0.86622789  0.91800891  0.70049311    -0.71800
O568        O  0.90488095  0.83010583  0.64329554    -0.71400
O569        O  0.81265148  0.88422128  0.60981014    -0.72000
O570        O  0.79128425  0.79725288  0.66896298    -0.71400
O571        O  0.79796683  0.89539175  0.71723693    -0.72100
O572        O  0.80155833  0.81268728  0.62164763    -0.71500
O573        O  0.78767432  0.84590297  0.72314560    -0.72000
O574        O  0.84163084  0.79755269  0.72124168    -0.71900
O575        O  0.88941260  0.81269186  0.71287259    -0.71700
C576        C  0.89372684  0.91021699  0.70557107     0.80100
C577        C  0.80426387  0.90964473  0.62101948     0.80600
C578        C  0.89610440  0.82524794  0.61600726     0.79500
C579        C  0.78775520  0.79509752  0.64030672     0.79900
C580        C  0.78317483  0.87368209  0.72981977     0.81100
C581        C  0.87004020  0.79539518  0.72612637     0.80100
Zn582      Zn  0.13623306  0.14275979  0.62716319     1.49700
Zn583      Zn  0.15684536  0.21236430  0.64226158     1.49400
Zn584      Zn  0.15767189  0.16225032  0.69466104     1.49100
Zn585      Zn  0.20661319  0.16064245  0.64212247     1.49500
O586        O  0.16389989  0.16917366  0.65116373    -1.81200
O587        O  0.10739394  0.17018694  0.60155577    -0.71800
O588        O  0.14257232  0.23500212  0.67926826    -0.71600
O589        O  0.12611340  0.13078040  0.70232629    -0.71100
O590        O  0.12508983  0.21723168  0.61054094    -0.71800
O591        O  0.11111914  0.11438933  0.65659224    -0.71400
O592        O  0.14511407  0.20010255  0.71622617    -0.72000
O593        O  0.22843737  0.14136378  0.67734352    -0.71400
O594        O  0.19492725  0.23458130  0.62919679    -0.72100
O595        O  0.19516967  0.14695604  0.71525622    -0.71500
O596        O  0.23039022  0.19861191  0.63213732    -0.72000
O597        O  0.20985302  0.13238381  0.60736400    -0.71900
O598        O  0.16226116  0.11685803  0.59752914    -0.71700
C599        C  0.10679033  0.19913737  0.59719346     0.80100
C600        C  0.13999084  0.22713134  0.70710631     0.80600
C601        C  0.11004411  0.11324597  0.68586142     0.79500
C602        C  0.22111412  0.13893489  0.70531723     0.79900
C603        C  0.22256087  0.22614911  0.62771427     0.81100
C604        C  0.19104184  0.11617720  0.59246750     0.80100
C605        C  0.09081456  0.09162421  0.70201193    -0.15500
C606        C  0.07760072  0.07608387  0.72092767     0.08500
C607        C  0.06347272  0.05970679  0.74539149     0.10400
C608        C  0.05025216  0.04576881  0.76551289    -0.16400
C609        C  0.96474157  0.97768616  0.77493165    -0.15500
C610        C  0.94747845  0.96335148  0.75890577     0.08500
C611        C  0.92891457  0.94638436  0.73862064     0.10400
C612        C  0.91326726  0.93082713  0.72207969    -0.16400
C613        C  0.03218309  0.73447657  0.47692592    -0.15500
C614        C  0.04712430  0.75089634  0.46037416     0.08500
C615        C  0.06359402  0.77130007  0.44125667     0.10400
C616        C  0.07835577  0.78699826  0.42386292    -0.16400
C617        C  0.95582130  0.74297464  0.55436673    -0.15500
C618        C  0.94275258  0.76316997  0.56762151     0.08500
C619        C  0.92857166  0.78797662  0.58239796     0.10400
C620        C  0.91522973  0.80748827  0.59637475    -0.16400
C621        C  0.95559901  0.03661382  0.24877786    -0.15500
C622        C  0.94115018  0.05114085  0.26720048     0.08500
C623        C  0.92347377  0.06744487  0.28875686     0.10400
C624        C  0.90665920  0.08255143  0.30447573    -0.16400
C625        C  0.02180891  0.95027817  0.24119477    -0.15500
C626        C  0.03586254  0.93346831  0.25796421     0.08500
C627        C  0.05280849  0.91550826  0.27886072     0.10400
C628        C  0.06890058  0.90012312  0.29513590    -0.16400
C629        C  0.03453803  0.26809761  0.53156175    -0.15500
C630        C  0.05045697  0.25071375  0.54588189     0.08500
C631        C  0.06840590  0.22928808  0.56215484     0.10400
C632        C  0.08478986  0.21287172  0.57707665    -0.16400
C633        C  0.90195198  0.20529869  0.41850877    -0.15500
C634        C  0.91785046  0.22253741  0.43307493     0.08500
C635        C  0.93561371  0.24509192  0.44804258     0.10400
C636        C  0.95145560  0.26371210  0.46088934    -0.16400
C637        C  0.72673763  0.97175019  0.55463533    -0.15500
C638        C  0.74483316  0.95902491  0.57093410     0.08500
C639        C  0.76721423  0.94375399  0.58827929     0.10400
C640        C  0.78558642  0.92937781  0.60280486    -0.16400
C641        C  0.72140455  0.03853742  0.46782424    -0.15500
C642        C  0.73862343  0.05305407  0.45161067     0.08500
C643        C  0.76018647  0.06962556  0.43373656     0.10400
C644        C  0.77718681  0.08475362  0.41784931    -0.16400
C645        C  0.25824217  0.04709745  0.52286270    -0.15500
C646        C  0.24125066  0.06340601  0.53704817     0.08500
C647        C  0.21999528  0.08092989  0.55376101     0.10400
C648        C  0.20384249  0.09625616  0.56990146    -0.16400
C649        C  0.24973182  0.96337612  0.45357410    -0.15500
C650        C  0.23098632  0.94784256  0.44064459     0.08500
C651        C  0.20880937  0.92974061  0.42569948     0.10400
C652        C  0.19227323  0.91278047  0.41161607    -0.16400
C653        C  0.74998398  0.75080390  0.62661946    -0.10300
C654        C  0.76759657  0.77179549  0.62935856    -0.11900
C655        C  0.26588964  0.26752004  0.62633689    -0.10300
C656        C  0.24588756  0.24878757  0.62372945    -0.11900
C657        C  0.55454956  0.53856883  0.75445716    -0.15500
C658        C  0.57038676  0.55090947  0.73540940     0.08500
C659        C  0.58798778  0.56591330  0.71268623     0.10400
C660        C  0.60389304  0.58103957  0.69582892    -0.16400
C661        C  0.42540542  0.41797164  0.70778408    -0.15500
C662        C  0.43915611  0.43571306  0.72366844     0.08500
C663        C  0.45415356  0.45522007  0.74441993     0.10400
C664        C  0.46857211  0.47150986  0.76123882    -0.16400
C665        C  0.25060598  0.46816730  0.54519266    -0.15500
C666        C  0.26942304  0.45455880  0.55979117     0.08500
C667        C  0.29121117  0.43777339  0.57633022     0.10400
C668        C  0.30723654  0.42150140  0.59153515    -0.16400
C669        C  0.23516168  0.75657555  0.37571226    -0.10300
C670        C  0.25590813  0.73866693  0.37523149    -0.11900
C671        C  0.23854149  0.53880652  0.46266953    -0.15500
C672        C  0.25502666  0.55388320  0.44635054     0.08500
C673        C  0.27636670  0.57109505  0.42907634     0.10400
C674        C  0.29367123  0.58676985  0.41423184    -0.16400
C675        C  0.59421043  0.70776089  0.58514918    -0.15500
C676        C  0.57618964  0.72370861  0.57169705     0.08500
C677        C  0.55636435  0.74464509  0.55707611     0.10400
C678        C  0.53967494  0.76234638  0.54409113    -0.16400
C679        C  0.41108107  0.71750059  0.41792593    -0.15500
C680        C  0.42577472  0.73377355  0.43474650     0.08500
C681        C  0.44291515  0.75339670  0.45401795     0.10400
C682        C  0.45854588  0.76906144  0.47056269    -0.16400
C683        C  0.46571028  0.24397635  0.53313277    -0.15500
C684        C  0.45301149  0.26245465  0.54890767     0.08500
C685        C  0.43796448  0.28378193  0.56755815     0.10400
C686        C  0.42342168  0.29951566  0.58466615    -0.16400
C687        C  0.74995395  0.24094615  0.37137032    -0.10300
C688        C  0.73188443  0.26137672  0.36980236    -0.11900
C689        C  0.58280533  0.29063800  0.40431088    -0.15500
C690        C  0.56859791  0.27202770  0.41920835     0.08500
C691        C  0.55259250  0.24935842  0.43620449     0.10400
C692        C  0.53774923  0.23200174  0.45196240    -0.16400
C693        C  0.72246025  0.59150349  0.57428840    -0.15500
C694        C  0.73836318  0.57510225  0.55883286     0.08500
C695        C  0.75876474  0.55619270  0.54231204     0.10400
C696        C  0.77525431  0.53934954  0.52799027    -0.16400
C697        C  0.71074316  0.41662535  0.40356232    -0.15500
C698        C  0.72877724  0.43099140  0.41884568     0.08500
C699        C  0.75100988  0.44684399  0.43638136     0.10400
C700        C  0.76921442  0.46078440  0.45184940    -0.16400
C701        C  0.46708258  0.55170725  0.23019855    -0.15500
C702        C  0.45223037  0.56624828  0.24836650     0.08500
C703        C  0.43500230  0.58215396  0.27071391     0.10400
C704        C  0.41944000  0.59603373  0.28880531    -0.16400
C705        C  0.58434520  0.41723912  0.27989484    -0.15500
C706        C  0.56951948  0.43343226  0.26319956     0.08500
C707        C  0.55294613  0.45217196  0.24270777     0.10400
C708        C  0.53846019  0.46889193  0.22623485    -0.16400
C709        C  0.73235518  0.12630574  0.23806554    -0.10300
C710        C  0.75047125  0.12547241  0.25869305    -0.11900
C711        C  0.62254661  0.24239141  0.23144537    -0.10300
C712        C  0.62249898  0.26197995  0.25074510    -0.11900
C713        C  0.22555447  0.86306976  0.25741924    -0.10300
C714        C  0.24507296  0.86397840  0.23806678    -0.11900
C715        C  0.37058247  0.76295900  0.24022374    -0.10300
C716        C  0.37205643  0.74434038  0.26042940    -0.11900
C717        C  0.24340480  0.12893426  0.72676950    -0.10300
C718        C  0.26235183  0.12622792  0.74634228    -0.11900
C719        C  0.37731365  0.23504106  0.75647287    -0.10300
C720        C  0.37937411  0.25555882  0.73827340    -0.11900
C721        C  0.46388894  0.03048140  0.72880828    -0.15500
C722        C  0.44894234  0.04550207  0.74645571     0.08500
C723        C  0.43192133  0.06205665  0.76842367     0.10400
C724        C  0.41627575  0.07717193  0.78536154    -0.16400
C725        C  0.74030150  0.87791895  0.77081044    -0.10300
C726        C  0.76038051  0.87996660  0.75219110    -0.11900
C727        C  0.63812871  0.75144211  0.76189469    -0.10300
C728        C  0.64035401  0.73310531  0.74163130    -0.11900
C729        C  0.53742270  0.95029123  0.73434420    -0.15500
C730        C  0.55101729  0.93549348  0.75326945     0.08500
C731        C  0.56683469  0.91904799  0.77622147     0.10400
C732        C  0.58192057  0.90426401  0.79396875    -0.16400
C733        C  0.76771408  0.03301539  0.04218215    -0.15500
C734        C  0.75130880  0.05034112  0.05586014     0.08500
C735        C  0.72985981  0.06891773  0.07115921     0.10400
C736        C  0.71192332  0.08474972  0.08474830    -0.16400
C737        C  0.75591694  0.94767033  0.97524271    -0.15500
C738        C  0.73610081  0.93432768  0.96135252     0.08500
C739        C  0.71279757  0.91974973  0.94420281     0.10400
C740        C  0.69587014  0.90598692  0.92727603    -0.16400
C741        C  0.28426704  0.91866970  0.08929440    -0.15500
C742        C  0.26802612  0.93590698  0.07532622     0.08500
C743        C  0.24685510  0.95379979  0.05895656     0.10400
C744        C  0.22977043  0.96803529  0.04278867    -0.16400
C745        C  0.29425793  0.07086023  0.90225471    -0.15500
C746        C  0.27724867  0.05511185  0.91742546     0.08500
C747        C  0.25472119  0.03936528  0.93468884     0.10400
C748        C  0.23592895  0.02690606  0.95076691    -0.16400
C749        C  0.52833242  0.04193100  0.25422442    -0.15500
C750        C  0.54396387  0.05665776  0.23677179     0.08500
C751        C  0.56234336  0.07348991  0.21604257     0.10400
C752        C  0.57894149  0.08854346  0.19979928    -0.16400
C753        C  0.45032528  0.96491167  0.26055263    -0.15500
C754        C  0.43515036  0.94955917  0.24335461     0.08500
C755        C  0.41827232  0.93219775  0.22189547     0.10400
C756        C  0.40297907  0.91632303  0.20528506    -0.16400
C757        C  0.58071871  0.78466648  0.91585518    -0.15500
C758        C  0.56435460  0.76848904  0.93130065     0.08500
C759        C  0.54600681  0.74780694  0.94835707     0.10400
C760        C  0.52933345  0.73108028  0.96285936    -0.16400
C761        C  0.39986451  0.79555655  0.07790086    -0.15500
C762        C  0.41338586  0.77851662  0.06097859     0.08500
C763        C  0.42851932  0.75582208  0.04365505     0.10400
C764        C  0.44282108  0.73692036  0.02960345    -0.16400
C765        C  0.58773442  0.21112038  0.07499906    -0.15500
C766        C  0.57400461  0.22818326  0.05821627     0.08500
C767        C  0.55835690  0.24911291  0.03915085     0.10400
C768        C  0.54359449  0.26560912  0.02269681    -0.16400
C769        C  0.46125833  0.25664679  0.95146379    -0.15500
C770        C  0.44623126  0.23732648  0.93857380     0.08500
C771        C  0.42920415  0.21420117  0.92347275     0.10400
C772        C  0.41357077  0.19669442  0.90886338    -0.16400
C773        C  0.12054139  0.72439058  0.24940836    -0.10300
C774        C  0.11892956  0.74389166  0.26855942    -0.11900
C775        C  0.23384253  0.73400818  0.12964219    -0.10300
C776        C  0.25245849  0.75428689  0.12849211    -0.11900
C777        C  0.26332778  0.62265169  0.26289617    -0.10300
C778        C  0.24350594  0.62074645  0.24405584    -0.11900
C779        C  0.86323897  0.25398115  0.23848701    -0.10300
C780        C  0.86253682  0.23524587  0.25866783    -0.11900
C781        C  0.73907765  0.23842562  0.11626406    -0.10300
C782        C  0.75881454  0.25762926  0.11604527    -0.11900
C783        C  0.75814966  0.37504060  0.23203490    -0.10300
C784        C  0.73852306  0.37578092  0.25129775    -0.11900
C785        C  0.88092080  0.75180203  0.76553290    -0.10300
C786        C  0.87973292  0.77242613  0.74729383    -0.11900
C787        C  0.76319075  0.73955073  0.87303864    -0.10300
C788        C  0.74264615  0.75750090  0.87451567    -0.11900
C789        C  0.76070395  0.63135418  0.73011293    -0.10300
C790        C  0.77903357  0.63213319  0.75049458    -0.11900
C791        C  0.03560253  0.75959372  0.05356871    -0.15500
C792        C  0.04981160  0.74100055  0.06810619     0.08500
C793        C  0.06648998  0.71813599  0.08362512     0.10400
C794        C  0.08188251  0.69984790  0.09729753    -0.16400
C795        C  0.96737691  0.76365238  0.96859990    -0.15500
C796        C  0.95294728  0.74631866  0.95277608     0.08500
C797        C  0.93586618  0.72506848  0.93549365     0.10400
C798        C  0.92002117  0.70891947  0.91977900    -0.16400
C799        C  0.13404648  0.26805487  0.74981128    -0.10300
C800        C  0.13352520  0.24982726  0.72941229    -0.11900
C801        C  0.23797884  0.24788820  0.86667901    -0.10300
C802        C  0.25648331  0.22773410  0.86573341    -0.11900
C803        C  0.25587206  0.37203167  0.76788480    -0.10300
C804        C  0.27548442  0.37248246  0.74868944    -0.11900
C805        C  0.97700054  0.54592025  0.74769968    -0.15500
C806        C  0.96273357  0.56033948  0.76618869     0.08500
C807        C  0.94537829  0.57707961  0.78741124     0.10400
C808        C  0.92873329  0.59261881  0.80270244    -0.16400
C809        C  0.09775655  0.41872963  0.79272008    -0.15500
C810        C  0.08309543  0.43468568  0.77564714     0.08500
C811        C  0.06683331  0.45212715  0.75378327     0.10400
C812        C  0.05192232  0.46781048  0.73668184    -0.16400
C813        C  0.96702355  0.22985992  0.03941841    -0.15500
C814        C  0.95133435  0.24623753  0.05500033     0.08500
C815        C  0.93302092  0.26672596  0.07186417     0.10400
C816        C  0.91663205  0.28336146  0.08641629    -0.16400
C817        C  0.03912593  0.23599602  0.95695851    -0.15500
C818        C  0.05357716  0.25441656  0.94206776     0.08500
C819        C  0.07063445  0.27644413  0.92527099     0.10400
C820        C  0.08662809  0.29313147  0.90993328    -0.16400
C821        C  0.04155169  0.52372089  0.27442666    -0.15500
C822        C  0.05805328  0.53842003  0.25775381     0.08500
C823        C  0.07586264  0.55521074  0.23647429     0.10400
C824        C  0.09082255  0.57064451  0.21902422    -0.16400
C825        C  0.96085333  0.44988420  0.26738099    -0.15500
C826        C  0.94609284  0.43566151  0.24904635     0.08500
C827        C  0.92931024  0.41952986  0.22680036     0.10400
C828        C  0.91413637  0.40506486  0.20899342    -0.16400
C829        C  0.26640800  0.53418338  0.04172280    -0.15500
C830        C  0.24898097  0.54840829  0.05752350     0.08500
C831        C  0.22763052  0.56439889  0.07556589     0.10400
C832        C  0.21042314  0.57874179  0.09150418    -0.16400
C833        C  0.26906928  0.45347300  0.96822504    -0.15500
C834        C  0.25130722  0.43797007  0.95382690     0.08500
C835        C  0.22944998  0.42122042  0.93677823     0.10400
C836        C  0.21268878  0.40641086  0.92058938    -0.16400
C837        C  0.73833303  0.54105072  0.95855803    -0.15500
C838        C  0.75620915  0.55564458  0.94313184     0.08500
C839        C  0.77850084  0.57230916  0.92624874     0.10400
C840        C  0.79605147  0.58768155  0.91120945    -0.16400
C841        C  0.79481876  0.41060971  0.07990111    -0.15500
C842        C  0.77856320  0.42745582  0.06542919     0.08500
C843        C  0.75804549  0.44694593  0.05000021     0.10400
C844        C  0.74103545  0.46388553  0.03655283    -0.16400
C845        C  0.87896002  0.00271467  0.00809833    -0.13500
C846        C  0.85939347  0.97886954  0.00669328    -0.28600
H847        H  0.86988771  0.02577467  0.00826110     0.15600
H848        H  0.86824988  0.95594564  0.00363723     0.16100
C849        C  0.00037431  0.87873998  0.99430353    -0.13500
C850        C  0.99883204  0.85941769  0.01833448    -0.28600
H851        H  0.00420191  0.86968259  0.97153640     0.15600
H852        H  0.99816972  0.86864800  0.04134536     0.16100
C853        C  0.99499984  0.00641622  0.88751162    -0.13500
C854        C  0.01893585  0.00900470  0.86813024    -0.28600
H855        H  0.97201704  0.00709304  0.87825961     0.15600
H856        H  0.04185928  0.01128340  0.87727972     0.16100
C857        C  0.00314861  0.11625571  0.01620786    -0.13500
C858        C  0.00302349  0.13508619  0.99175767    -0.28600
H859        H  0.00560139  0.12589520  0.03892843     0.15600
H860        H  0.00352425  0.12547835  0.96890331     0.16100
C861        C  0.11629638  0.99722910  0.01497195    -0.13500
C862        C  0.13503137  0.99738839  0.99050424    -0.28600
H863        H  0.12596754  0.99878005  0.03776209     0.15600
H864        H  0.12534086  0.99861859  0.96769882     0.16100
C865        C  0.99071099  0.98282381  0.12703164    -0.13500
C866        C  0.99258901  0.00577912  0.14742561    -0.28600
H867        H  0.98634581  0.95972904  0.13523669     0.15600
H868        H  0.99396437  0.02921594  0.13921187     0.16100
C869        C  0.00657211  0.62219959  0.50579245    -0.13500
C870        C  0.98955449  0.64063378  0.52350039    -0.28600
H871        H  0.02169832  0.63237229  0.48885507     0.15600
H872        H  0.97410704  0.63073549  0.54029557     0.16100
C873        C  0.88889729  0.50531425  0.51059061    -0.13500
C874        C  0.87005913  0.49030268  0.49133384    -0.28600
H875        H  0.87912701  0.52058632  0.52754640     0.15600
H876        H  0.87982459  0.47488700  0.47450693     0.16100
C877        C  0.02036802  0.49704213  0.62434079    -0.13500
C878        C  0.00420267  0.51332320  0.64468312    -0.28600
H879        H  0.03756738  0.48121012  0.63253655     0.15600
H880        H  0.98715220  0.52930480  0.63646484     0.16100
C881        C  0.12731741  0.51054012  0.49630402    -0.13500
C882        C  0.14740548  0.49415287  0.51271274    -0.28600
H883        H  0.13565211  0.52732301  0.48000258     0.15600
H884        H  0.13909502  0.47772240  0.52937804     0.16100
C885        C  0.99121478  0.36431947  0.49121146    -0.13500
C886        C  0.01040971  0.38277862  0.50673443    -0.28600
H887        H  0.97396180  0.37445121  0.47654498     0.15600
H888        H  0.02773554  0.37260976  0.52129224     0.16100
C889        C  0.00841142  0.50365550  0.38693152    -0.13500
C890        C  0.99232637  0.48506963  0.36853058    -0.28600
H891        H  0.02416421  0.52010653  0.37686979     0.15600
H892        H  0.97633957  0.46875025  0.37841460     0.16100
C893        C  0.48426674  0.88228514  0.49757237    -0.13500
C894        C  0.50359258  0.86362653  0.51253189    -0.28600
H895        H  0.46611286  0.87229451  0.48388601     0.15600
H896        H  0.52163441  0.87348598  0.52644946     0.16100
C897        C  0.60825268  0.00358195  0.48862105    -0.13500
C898        C  0.62684946  0.99234911  0.51027551    -0.28600
H899        H  0.61797085  0.01660222  0.46971644     0.15600
H900        H  0.61712626  0.97931724  0.52916692     0.16100
C901        C  0.49087286  0.00658212  0.61413453    -0.13500
C902        C  0.50588797  0.98735533  0.63299205    -0.28600
H903        H  0.47658965  0.02424648  0.62403078     0.15600
H904        H  0.52032377  0.96977924  0.62316199     0.16100
C905        C  0.50286265  0.11986442  0.48198080    -0.13500
C906        C  0.48975091  0.14071034  0.50020932    -0.28600
H907        H  0.51767869  0.12746396  0.46349091     0.15600
H908        H  0.47471666  0.13299485  0.51847874     0.16100
C909        C  0.37140927  0.01403185  0.50129521    -0.13500
C910        C  0.35162760  0.99632198  0.48567137    -0.28600
H911        H  0.36278887  0.03233417  0.51561565     0.15600
H912        H  0.36042868  0.97817940  0.47125062     0.16100
C913        C  0.47802225  0.99123568  0.37513764    -0.13500
C914        C  0.49521793  0.00744550  0.35520352    -0.28600
H915        H  0.46062995  0.97564740  0.36663868     0.15600
H916        H  0.51233172  0.02319079  0.36399189     0.16100
C917        C  0.50366157  0.61742981  0.99711571    -0.13500
C918        C  0.47909542  0.63583446  0.99705623    -0.28600
H919        H  0.52628429  0.62762209  0.99865553     0.15600
H920        H  0.45638546  0.62581449  0.99843618     0.16100
C921        C  0.62298061  0.50703548  0.98443271    -0.13500
C922        C  0.64235136  0.50705814  0.00821979    -0.28600
H923        H  0.63224590  0.50616909  0.96135996     0.15600
H924        H  0.63329396  0.50469474  0.03127961     0.16100
C925        C  0.49287612  0.50724949  0.87478268    -0.13500
C926        C  0.51704112  0.50711863  0.85568357    -0.28600
H927        H  0.46999854  0.50991514  0.86554219     0.15600
H928        H  0.54001536  0.50733588  0.86509378     0.16100
C929        C  0.50516078  0.49097720  0.11197728    -0.13500
C930        C  0.50344438  0.51574965  0.13013476    -0.28600
H931        H  0.50470029  0.46834115  0.12228259     0.15600
H932        H  0.50087089  0.53821637  0.11982249     0.16100
C933        C  0.36466237  0.50623420  0.99696666    -0.13500
C934        C  0.38510581  0.48346779  0.99866662    -0.28600
H935        H  0.37268284  0.52973104  0.99586392     0.15600
H936        H  0.37705356  0.46028753  0.00274233     0.16100
C937        C  0.51747152  0.37916458  0.98343856    -0.13500
C938        C  0.49406161  0.35901596  0.98472353    -0.28600
H939        H  0.54051470  0.37084516  0.97980757     0.15600
H940        H  0.47081100  0.36751609  0.98533268     0.16100
loop_ 
_geom_bond_atom_site_label_1 
_geom_bond_atom_site_label_2 
_geom_bond_distance 
_geom_bond_site_symmetry_2 
_ccdc_geom_bond_type 
Zn1           O5   1.979   1_554  S
Zn1           O6   2.039       .  S
Zn1          O10   2.063       .  S
Zn1          O17   2.052       .  S
Zn2           O5   1.988       .  S
Zn2           O7   2.050       .  S
Zn2           O9   2.062       .  S
Zn2          O13   2.052       .  S
Zn3           O5   1.974       .  S
Zn3           O8   2.027       .  S
Zn3          O11   2.033       .  S
Zn3          O14   2.059       .  S
Zn4           O5   1.975   1_554  S
Zn4          O12   2.044       .  S
Zn4          O15   2.037       .  S
Zn4          O16   2.051       .  S
O6           C18   1.276   1_554  A
O7           C19   1.277       .  A
O8           C20   1.273       .  A
O9           C18   1.278       .  A
O10          C20   1.278   1_554  A
O11          C19   1.276       .  A
O12          C21   1.276   1_554  A
O13          C22   1.277       .  A
O14          C21   1.278       .  A
O15          C22   1.275   1_554  A
O16          C23   1.278       .  A
O17          C23   1.278       .  A
C18         C917   1.487       .  S
C19         C925   1.483       .  S
C20         C921   1.486       .  S
C21         C937   1.489       .  S
C22         C934   1.487       .  S
C23         C929   1.487       .  S
Zn24         O28   1.972   1_565  S
Zn24         O29   2.041       .  S
Zn24         O33   2.036       .  S
Zn24         O40   2.028       .  S
Zn25         O28   1.970       .  S
Zn25         O30   2.019       .  S
Zn25         O32   2.035       .  S
Zn25         O36   2.013       .  S
Zn26         O28   1.975       .  S
Zn26         O31   2.042       .  S
Zn26         O34   2.057       .  S
Zn26         O37   2.044       .  S
Zn27         O28   1.991   1_565  S
Zn27         O35   2.069       .  S
Zn27         O38   2.062       .  S
Zn27         O39   2.066       .  S
O29          C41   1.274       .  A
O30          C42   1.272       .  A
O31          C43   1.276       .  A
O32          C41   1.276   1_545  A
O33          C43   1.277   1_565  A
O34          C42   1.279       .  A
O35          C44   1.280   1_565  A
O36          C45   1.273       .  A
O37          C44   1.277       .  A
O38          C45   1.280   1_565  A
O39          C46   1.280       .  A
O40          C46   1.275       .  A
C41         C913   1.489       .  S
C42         C905   1.487       .  S
C43         C909   1.487       .  S
C44         C901   1.494       .  S
C45         C897   1.485       .  S
C46         C893   1.488       .  S
Zn47         O51   1.987   1_655  S
Zn47         O52   2.068       .  S
Zn47         O56   2.062       .  S
Zn47         O63   2.049       .  S
Zn48         O51   1.959       .  S
Zn48         O53   2.012       .  S
Zn48         O55   2.008       .  S
Zn48         O59   2.002       .  S
Zn49         O51   1.974       .  S
Zn49         O54   2.020       .  S
Zn49         O57   2.050       .  S
Zn49         O60   2.034       .  S
Zn50         O51   1.992   1_655  S
Zn50         O58   2.064       .  S
Zn50         O61   2.061       .  S
Zn50         O62   2.062       .  S
O52          C64   1.278   1_655  A
O53          C65   1.271       .  A
O54          C66   1.274       .  A
O55          C64   1.272       .  A
O56          C66   1.280   1_655  A
O57          C65   1.276       .  A
O58          C67   1.280   1_655  A
O59          C68   1.271       .  A
O60          C67   1.276       .  A
O61          C68   1.279   1_655  A
O62          C69   1.280       .  A
O63          C69   1.278       .  A
C64         C869   1.485       .  S
C65         C881   1.483       .  S
C66         C877   1.486       .  S
C67         C886   1.491       .  S
C68         C889   1.482       .  S
C69         C873   1.493       .  S
Zn70         O74   1.987   1_456  S
Zn70         O75   2.045       .  S
Zn70         O79   2.064       .  S
Zn70         O86   2.056       .  S
Zn71         O74   1.979   1_445  S
Zn71         O76   2.043       .  S
Zn71         O78   2.042       .  S
Zn71         O82   2.053       .  S
Zn72         O74   1.968   1_546  S
Zn72         O77   2.042       .  S
Zn72         O80   2.046       .  S
Zn72         O83   2.036       .  S
Zn73         O74   1.984       .  S
Zn73         O81   2.063       .  S
Zn73         O84   2.051       .  S
Zn73         O85   2.039       .  S
O75          C87   1.278   1_556  A
O76          C88   1.276       .  A
O77          C89   1.275       .  A
O78          C87   1.277   1_545  A
O79          C89   1.277   1_465  A
O80          C88   1.276   1_656  A
O81          C90   1.279       .  A
O82          C91   1.276   1_445  A
O83          C90   1.276   1_546  A
O84          C91   1.276       .  A
O85          C92   1.276   1_554  A
O86          C92   1.278   1_455  A
C87         C861   1.484       .  S
C88         C857   1.485       .  S
C89         C853   1.489       .  S
C90         C845   1.486   1_565  S
C91         C865   1.490       .  S
C92         C849   1.485   1_655  S
C93          N94   1.364       .  A
C93          N98   1.353       .  A
C93         C837   1.441       .  S
N94          C95   1.367   1_556  A
C95         C922   1.485       .  S
C95          N96   1.362       .  A
N96          C97   1.358       .  A
C97          N98   1.351   1_554  A
C97         C844   1.436       .  S
C99         N100   1.358       .  A
C99         N104   1.351       .  A
C99         C829   1.435       .  S
N100        C101   1.362       .  A
C101        C933   1.484   1_554  S
C101        N102   1.367   1_554  A
N102        C103   1.364       .  A
C103        N104   1.352   1_556  A
C103        C833   1.440       .  S
C105        N106   1.360       .  A
C105        N110   1.351       .  A
C105        C821   1.436       .  S
N106        C107   1.366   1_455  A
C107        C890   1.486       .  S
C107        N108   1.362       .  A
N108        C109   1.359       .  A
C109        N110   1.351   1_655  A
C109        C825   1.433       .  S
C111        N112   1.352   1_654  A
C111        N116   1.361       .  A
C111        C813   1.438       .  S
N112        C113   1.352       .  A
C113        N114   1.362       .  A
C113        C817   1.440       .  S
N114        C115   1.365       .  A
C115        C858   1.485       .  S
C115        N116   1.364   1_456  A
C117        N118   1.349   1_655  A
C117        N122   1.357       .  A
C117        C805   1.432       .  S
N118        C119   1.351       .  A
C119        N120   1.364       .  A
C119        C812   1.438       .  S
N120        C121   1.368       .  A
C121        C878   1.487       .  S
C121        N122   1.361   1_455  A
Zn123       O127   1.977       .  S
Zn123       O128   2.076       .  S
Zn123       O132   2.072       .  S
Zn123       O139   2.071       .  S
Zn124       O127   1.949       .  S
Zn124       O129   1.992       .  S
Zn124       O131   1.970       .  S
Zn124       O135   1.995       .  S
Zn125       O127   1.953       .  S
Zn125       O130   1.978       .  S
Zn125       O133   2.005       .  S
Zn125       O136   2.003       .  S
Zn126       O127   1.952       .  S
Zn126       O134   2.004       .  S
Zn126       O137   2.000       .  S
Zn126       O138   1.978       .  S
O128        C140   1.280       .  A
O129        C141   1.267       .  A
O130        C142   1.268       .  A
O131        C140   1.266       .  A
O132        C142   1.280       .  A
O133        C141   1.269       .  A
O134        C143   1.269       .  A
O135        C144   1.268       .  A
O136        C143   1.269       .  A
O137        C144   1.269       .  A
O138        C145   1.268       .  A
O139        C145   1.280       .  A
C140        C809   1.438       .  S
C141        C803   1.425       .  S
C142        C836   1.439       .  S
C143        C801   1.428       .  S
C144        C799   1.425       .  S
C145        C820   1.439       .  S
C146        N147   1.351   1_656  A
C146        N151   1.362       .  A
C146        C795   1.435       .  S
N147        C148   1.350       .  A
C148        N149   1.361       .  A
C148        C791   1.437       .  S
N149        C150   1.364       .  A
C150        C850   1.484   1_455  S
C150        N151   1.365   1_454  A
Zn152       O156   1.954       .  S
Zn152       O157   2.007       .  S
Zn152       O161   1.976       .  S
Zn152       O168   2.012       .  S
Zn153       O156   1.947       .  S
Zn153       O158   1.983       .  S
Zn153       O160   2.002       .  S
Zn153       O164   1.997       .  S
Zn154       O156   1.976       .  S
Zn154       O159   2.049       .  S
Zn154       O162   2.070       .  S
Zn154       O165   2.057       .  S
Zn155       O156   1.949       .  S
Zn155       O163   1.975       .  S
Zn155       O166   2.000       .  S
Zn155       O167   2.005       .  S
O157        C169   1.269       .  A
O158        C170   1.268       .  A
O159        C171   1.277       .  A
O160        C169   1.269       .  A
O161        C171   1.268       .  A
O162        C170   1.279       .  A
O163        C172   1.267       .  A
O164        C173   1.269       .  A
O165        C172   1.278       .  A
O166        C173   1.269       .  A
O167        C174   1.269       .  A
O168        C174   1.270       .  A
C169        C790   1.428       .  S
C170        C840   1.441       .  S
C171        C808   1.430       .  S
C172        C798   1.434       .  S
C173        C787   1.425       .  S
C174        C785   1.431       .  S
Zn175       O179   1.965       .  S
Zn175       O180   2.012       .  S
Zn175       O184   2.016       .  S
Zn175       O191   2.026       .  S
Zn176       O179   1.969       .  S
Zn176       O181   2.029       .  S
Zn176       O183   2.028       .  S
Zn176       O187   2.029       .  S
Zn177       O179   1.962       .  S
Zn177       O182   2.014       .  S
Zn177       O185   2.018       .  S
Zn177       O188   2.021       .  S
Zn178       O179   1.937       .  S
Zn178       O186   1.985       .  S
Zn178       O189   1.977       .  S
Zn178       O190   1.983       .  S
O180        C192   1.273       .  A
O181        C193   1.275       .  A
O182        C194   1.273       .  A
O183        C192   1.275       .  A
O184        C194   1.273       .  A
O185        C193   1.273       .  A
O186        C195   1.267       .  A
O187        C196   1.271       .  A
O188        C195   1.270       .  A
O189        C196   1.267       .  A
O190        C197   1.267       .  A
O191        C197   1.270       .  A
C192        C841   1.436       .  S
C193        C816   1.438       .  S
C194        C828   1.433       .  S
C195        C779   1.429       .  S
C196        C782   1.428       .  S
C197        C783   1.430       .  S
Zn198       O202   1.936       .  S
Zn198       O203   1.977       .  S
Zn198       O207   1.980       .  S
Zn198       O214   1.981       .  S
Zn199       O202   1.964       .  S
Zn199       O204   2.023       .  S
Zn199       O206   2.023       .  S
Zn199       O210   2.018       .  S
Zn200       O202   1.963       .  S
Zn200       O205   2.017       .  S
Zn200       O208   2.015       .  S
Zn200       O211   2.017       .  S
Zn201       O202   1.964       .  S
Zn201       O209   2.023       .  S
Zn201       O212   2.021       .  S
Zn201       O213   2.026       .  S
O203        C215   1.267       .  A
O204        C216   1.274       .  A
O205        C217   1.269       .  A
O206        C215   1.270       .  A
O207        C217   1.267       .  A
O208        C216   1.273       .  A
O209        C218   1.274       .  A
O210        C219   1.274       .  A
O211        C218   1.273       .  A
O212        C219   1.274       .  A
O213        C220   1.270       .  A
O214        C220   1.267       .  A
C215        C778   1.427       .  S
C216        C824   1.436       .  S
C217        C773   1.426       .  S
C218        C794   1.436       .  S
C219        C832   1.435       .  S
C220        C775   1.429       .  S
C221        N222   1.362       .  A
C221        N226   1.352   1_554  A
C221        C768   1.439       .  S
N222        C223   1.365   1_554  A
C223        C938   1.488       .  S
C223        N224   1.366       .  A
N224        C225   1.363       .  A
C225        N226   1.351       .  A
C225        C769   1.443       .  S
C227        N228   1.362       .  A
C227        N232   1.351       .  A
C227        C760   1.438       .  S
N228        C229   1.366       .  A
C229        C918   1.489       .  S
C229        N230   1.366   1_556  A
N230        C231   1.363       .  A
C231        N232   1.351   1_554  A
C231        C764   1.441       .  S
C233        N234   1.351       .  A
C233        N238   1.357       .  A
C233        C749   1.436       .  S
N234        C235   1.353   1_545  A
C235        N236   1.365       .  A
C235        C753   1.439       .  S
N236        C237   1.367   1_565  A
C237        C914   1.486       .  S
C237        N238   1.362       .  A
C239        N240   1.351   1_554  A
C239        N244   1.361       .  A
C239        C744   1.434       .  S
N240        C241   1.350   1_565  A
C241        N242   1.361       .  A
C241        C748   1.437       .  S
N242        C243   1.364   1_545  A
C243        C862   1.484       .  S
C243        N244   1.365   1_556  A
C245        N246   1.351   1_556  A
C245        N250   1.363       .  A
C245        C737   1.441       .  S
N246        C247   1.351   1_565  A
C247        N248   1.361       .  A
C247        C733   1.437       .  S
N248        C249   1.365   1_545  A
C249        C846   1.489       .  S
C249        N250   1.366   1_554  A
Zn251       O255   1.977       .  S
Zn251       O256   2.080       .  S
Zn251       O260   2.063       .  S
Zn251       O267   2.074       .  S
Zn252       O255   1.947       .  S
Zn252       O257   1.990       .  S
Zn252       O259   1.965       .  S
Zn252       O263   1.996       .  S
Zn253       O255   1.955       .  S
Zn253       O258   1.984       .  S
Zn253       O261   2.002       .  S
Zn253       O264   2.008       .  S
Zn254       O255   1.948       .  S
Zn254       O262   2.001       .  S
Zn254       O265   2.000       .  S
Zn254       O266   1.976       .  S
O256        C268   1.280       .  A
O257        C269   1.268       .  A
O258        C270   1.269       .  A
O259        C268   1.266       .  A
O260        C270   1.279       .  A
O261        C269   1.269       .  A
O262        C271   1.269       .  A
O263        C272   1.267       .  A
O264        C271   1.269       .  A
O265        C272   1.268       .  A
O266        C273   1.268       .  A
O267        C273   1.280       .  A
C268        C740   1.438       .  S
C269        C788   1.424       .  S
C270        C757   1.438       .  S
C271        C727   1.429       .  S
C272        C725   1.425       .  S
C273        C732   1.439       .  S
C274        N275   1.362       .  A
C274        N279   1.350       .  A
C274        C729   1.440       .  S
N275        C276   1.366       .  A
C276        C902   1.495       .  S
C276        N277   1.369   1_565  A
N277        C278   1.364       .  A
C278        N279   1.351   1_545  A
C278        C721   1.441       .  S
Zn280       O284   1.948       .  S
Zn280       O285   1.973       .  S
Zn280       O289   1.999       .  S
Zn280       O296   1.997       .  S
Zn281       O284   1.979       .  S
Zn281       O286   2.070       .  S
Zn281       O288   2.080       .  S
Zn281       O292   2.075       .  S
Zn282       O284   1.954       .  S
Zn282       O287   2.009       .  S
Zn282       O290   1.975       .  S
Zn282       O293   1.999       .  S
Zn283       O284   1.952       .  S
Zn283       O291   1.997       .  S
Zn283       O294   1.975       .  S
Zn283       O295   1.999       .  S
O285        C297   1.267       .  A
O286        C298   1.280       .  A
O287        C299   1.269       .  A
O288        C297   1.281       .  A
O289        C299   1.268       .  A
O290        C298   1.268       .  A
O291        C300   1.268       .  A
O292        C301   1.280       .  A
O293        C300   1.269       .  A
O294        C301   1.267       .  A
O295        C302   1.268       .  A
O296        C302   1.268       .  A
C297        C772   1.440       .  S
C298        C745   1.436       .  S
C299        C802   1.429       .  S
C300        C718   1.425       .  S
C301        C724   1.440       .  S
C302        C719   1.426       .  S
Zn303       O307   1.948       .  S
Zn303       O308   2.007       .  S
Zn303       O312   1.976       .  S
Zn303       O319   2.005       .  S
Zn304       O307   1.949       .  S
Zn304       O309   1.978       .  S
Zn304       O311   2.001       .  S
Zn304       O315   2.005       .  S
Zn305       O307   1.976       .  S
Zn305       O310   2.075       .  S
Zn305       O313   2.069       .  S
Zn305       O316   2.056       .  S
Zn306       O307   1.952       .  S
Zn306       O314   1.975       .  S
Zn306       O317   2.003       .  S
Zn306       O318   2.006       .  S
O308        C320   1.270       .  A
O309        C321   1.268       .  A
O310        C322   1.280       .  A
O311        C320   1.269       .  A
O312        C322   1.267       .  A
O313        C321   1.280       .  A
O314        C323   1.268       .  A
O315        C324   1.269       .  A
O316        C323   1.278       .  A
O317        C324   1.269       .  A
O318        C325   1.269       .  A
O319        C325   1.270       .  A
C320        C715   1.428       .  S
C321        C756   1.438       .  S
C322        C761   1.439       .  S
C323        C741   1.433       .  S
C324        C714   1.429       .  S
C325        C776   1.429       .  S
Zn326       O330   1.940       .  S
Zn326       O331   1.988       .  S
Zn326       O335   1.989       .  S
Zn326       O342   1.990       .  S
Zn327       O330   1.969       .  S
Zn327       O332   2.022       .  S
Zn327       O334   2.019       .  S
Zn327       O338   2.022       .  S
Zn328       O330   1.967       .  S
Zn328       O333   2.027       .  S
Zn328       O336   2.022       .  S
Zn328       O339   2.020       .  S
Zn329       O330   1.968       .  S
Zn329       O337   2.023       .  S
Zn329       O340   2.030       .  S
Zn329       O341   2.035       .  S
O331        C343   1.268       .  A
O332        C344   1.274       .  A
O333        C345   1.271       .  A
O334        C343   1.269       .  A
O335        C345   1.268       .  A
O336        C344   1.274       .  A
O337        C346   1.274       .  A
O338        C347   1.274       .  A
O339        C346   1.274       .  A
O340        C347   1.275       .  A
O341        C348   1.272       .  A
O342        C348   1.268       .  A
C343        C781   1.429       .  S
C344        C736   1.437       .  S
C345        C709   1.431       .  S
C346        C752   1.436       .  S
C347        C765   1.439       .  S
C348        C711   1.434       .  S
C349        N350   1.353       .  A
C349        N354   1.363       .  A
C349        C701   1.443       .  S
N350        C351   1.353       .  A
C351        N352   1.361       .  A
C351        C708   1.440       .  S
N352        C353   1.365       .  A
C353        C930   1.488       .  S
C353        N354   1.366       .  A
C355        N356   1.364       .  A
C355        N360   1.353       .  A
C355        C696   1.443       .  S
N356        C357   1.368       .  A
C357        C874   1.494       .  S
C357        N358   1.365       .  A
N358        C359   1.361       .  A
C359        N360   1.353       .  A
C359        C700   1.444       .  S
Zn361       O365   1.969       .  S
Zn361       O366   2.031       .  S
Zn361       O370   2.031       .  S
Zn361       O377   2.037       .  S
Zn362       O365   1.969       .  S
Zn362       O367   2.036       .  S
Zn362       O369   2.025       .  S
Zn362       O373   2.027       .  S
Zn363       O365   1.969       .  S
Zn363       O368   2.022       .  S
Zn363       O371   2.028       .  S
Zn363       O374   2.011       .  S
Zn364       O365   1.941       .  S
Zn364       O372   1.979       .  S
Zn364       O375   1.985       .  S
Zn364       O376   1.989       .  S
O366        C378   1.276       .  A
O367        C379   1.275       .  A
O368        C380   1.274       .  A
O369        C378   1.275       .  A
O370        C380   1.275       .  A
O371        C379   1.274       .  A
O372        C381   1.267       .  A
O373        C382   1.270       .  A
O374        C381   1.268       .  A
O375        C382   1.268       .  A
O376        C383   1.267       .  A
O377        C383   1.271       .  A
C378        C705   1.439       .  S
C379        C697   1.444       .  S
C380        C689   1.440       .  S
C381        C688   1.424       .  S
C382        C784   1.430       .  S
C383        C712   1.435       .  S
C384        N385   1.351       .  A
C384        N389   1.365       .  A
C384        C692   1.439       .  S
N385        C386   1.349       .  A
C386        N387   1.356       .  A
C386        C683   1.431       .  S
N387        C388   1.360       .  A
C388        C906   1.486       .  S
C388        N389   1.369       .  A
C390        N391   1.354       .  A
C390        N395   1.361       .  A
C390        C678   1.441       .  S
N391        C392   1.354       .  A
C392        N393   1.362       .  A
C392        C682   1.442       .  S
N393        C394   1.366       .  A
C394        C894   1.491       .  S
C394        N395   1.364       .  A
Zn396       O400   1.969       .  S
Zn396       O401   2.027       .  S
Zn396       O405   2.036       .  S
Zn396       O412   2.037       .  S
Zn397       O400   1.940       .  S
Zn397       O402   1.984       .  S
Zn397       O404   1.976       .  S
Zn397       O408   1.986       .  S
Zn398       O400   1.968       .  S
Zn398       O403   2.025       .  S
Zn398       O406   2.018       .  S
Zn398       O409   2.017       .  S
Zn399       O400   1.966       .  S
Zn399       O407   2.019       .  S
Zn399       O410   2.030       .  S
Zn399       O411   2.027       .  S
O401        C413   1.271       .  A
O402        C414   1.267       .  A
O403        C415   1.274       .  A
O404        C413   1.267       .  A
O405        C415   1.275       .  A
O406        C414   1.269       .  A
O407        C416   1.274       .  A
O408        C417   1.267       .  A
O409        C416   1.273       .  A
O410        C417   1.271       .  A
O411        C418   1.275       .  A
O412        C418   1.276       .  A
C413        C716   1.427       .  S
C414        C777   1.428       .  S
C415        C704   1.443       .  S
C416        C674   1.434       .  S
C417        C670   1.431       .  S
C418        C679   1.442       .  S
C419        N420   1.361       .  A
C419        N424   1.351       .  A
C419        C671   1.434       .  S
N420        C421   1.366       .  A
C421        C882   1.485       .  S
C421        N422   1.361       .  A
N422        C423   1.358       .  A
C423        N424   1.349       .  A
C423        C665   1.430       .  S
C425        N426   1.361       .  A
C425        N430   1.349       .  A
C425        C657   1.436       .  S
N426        C427   1.364       .  A
C427        C926   1.482       .  S
C427        N428   1.364       .  A
N428        C429   1.360       .  A
C429        N430   1.350       .  A
C429        C664   1.432       .  S
Zn431       O435   1.949       .  S
Zn431       O436   1.997       .  S
Zn431       O440   1.976       .  S
Zn431       O447   2.000       .  S
Zn432       O435   1.947       .  S
Zn432       O437   1.975       .  S
Zn432       O439   1.998       .  S
Zn432       O443   2.007       .  S
Zn433       O435   1.971       .  S
Zn433       O438   2.044       .  S
Zn433       O441   2.039       .  S
Zn433       O444   2.043       .  S
Zn434       O435   1.945       .  S
Zn434       O442   1.975       .  S
Zn434       O445   2.002       .  S
Zn434       O446   1.998       .  S
O436        C448   1.268       .  A
O437        C449   1.267       .  A
O438        C450   1.276       .  A
O439        C448   1.269       .  A
O440        C450   1.267       .  A
O441        C449   1.275       .  A
O442        C451   1.268       .  A
O443        C452   1.269       .  A
O444        C451   1.276       .  A
O445        C452   1.269       .  A
O446        C453   1.269       .  A
O447        C453   1.269       .  A
C448        C804   1.425       .  S
C449        C668   1.429       .  S
C450        C661   1.431       .  S
C451        C686   1.429       .  S
C452        C655   1.429       .  S
C453        C720   1.425       .  S
Zn454       O458   1.953       .  S
Zn454       O459   1.970       .  S
Zn454       O463   2.004       .  S
Zn454       O470   1.995       .  S
Zn455       O458   1.979       .  S
Zn455       O460   2.068       .  S
Zn455       O462   2.063       .  S
Zn455       O466   2.071       .  S
Zn456       O458   1.953       .  S
Zn456       O461   2.003       .  S
Zn456       O464   1.983       .  S
Zn456       O467   2.001       .  S
Zn457       O458   1.958       .  S
Zn457       O465   2.010       .  S
Zn457       O468   1.991       .  S
Zn457       O469   2.012       .  S
O459        C471   1.267       .  A
O460        C472   1.279       .  A
O461        C473   1.268       .  A
O462        C471   1.278       .  A
O463        C473   1.268       .  A
O464        C472   1.268       .  A
O465        C474   1.270       .  A
O466        C475   1.280       .  A
O467        C474   1.269       .  A
O468        C475   1.270       .  A
O469        C476   1.270       .  A
O470        C476   1.268       .  A
C471        C660   1.434       .  S
C472        C675   1.439       .  S
C473        C728   1.429       .  S
C474        C653   1.429       .  S
C475        C693   1.442       .  S
C476        C789   1.428       .  S
C477        N478   1.362       .  A
C477        N482   1.351       .  A
C477        C645   1.435       .  S
N478        C479   1.366       .  A
C479        C910   1.486   1_545  S
C479        N480   1.363   1_545  A
N480        C481   1.359       .  A
C481        N482   1.350   1_565  A
C481        C649   1.436       .  S
C483        N484   1.351   1_565  A
C483        N488   1.357       .  A
C483        C637   1.433       .  S
N484        C485   1.352       .  A
C485        N486   1.364       .  A
C485        C641   1.441       .  S
N486        C487   1.368   1_545  A
C487        C898   1.486       .  S
C487        N488   1.361       .  A
C489        N490   1.363       .  A
C489        N494   1.351   1_455  A
C489        C629   1.440       .  S
N490        C491   1.368   1_455  A
C491        C885   1.492       .  S
C491        N492   1.365       .  A
N492        C493   1.361       .  A
C493        N494   1.351       .  A
C493        C636   1.439       .  S
C495        N496   1.363       .  A
C495        N500   1.352   1_455  A
C495        C625   1.439       .  S
N496        C497   1.366   1_465  A
C497        C866   1.489       .  S
C497        N498   1.365       .  A
N498        C499   1.361       .  A
C499        N500   1.351   1_545  A
C499        C621   1.440       .  S
C501        N502   1.362       .  A
C501        N506   1.350       .  A
C501        C617   1.434       .  S
N502        C503   1.365       .  A
C503        C870   1.490       .  S
C503        N504   1.366   1_655  A
N504        C505   1.360       .  A
C505        N506   1.349   1_455  A
C505        C613   1.436       .  S
Zn507       O511   1.954       .  S
Zn507       O512   2.007       .  S
Zn507       O516   1.983       .  S
Zn507       O523   1.997       .  S
Zn508       O511   1.951       .  S
Zn508       O513   1.974       .  S
Zn508       O515   2.000       .  S
Zn508       O519   2.005       .  S
Zn509       O511   1.978       .  S
Zn509       O514   2.066       .  S
Zn509       O517   2.062       .  S
Zn509       O520   2.062       .  S
Zn510       O511   1.956       .  S
Zn510       O518   1.979       .  S
Zn510       O521   2.009       .  S
Zn510       O522   2.003       .  S
O512        C524   1.269       .  A
O513        C525   1.268       .  A
O514        C526   1.279       .  A
O515        C524   1.268       .  A
O516        C526   1.268       .  A
O517        C525   1.278       .  A
O518        C527   1.268       .  A
O519        C528   1.269       .  A
O520        C527   1.278       .  A
O521        C528   1.269       .  A
O522        C529   1.269       .  A
O523        C529   1.269       .  A
C524        C713   1.428       .  S
C525        C652   1.434       .  S
C526        C628   1.439       .  S
C527        C616   1.436       .  S
C528        C669   1.431       .  S
C529        C774   1.426       .  S
Zn530       O534   1.953       .  S
Zn530       O535   2.007       .  S
Zn530       O539   1.976       .  S
Zn530       O546   2.004       .  S
Zn531       O534   1.954       .  S
Zn531       O536   1.984       .  S
Zn531       O538   2.011       .  S
Zn531       O542   2.003       .  S
Zn532       O534   1.979       .  S
Zn532       O537   2.068       .  S
Zn532       O540   2.073       .  S
Zn532       O543   2.072       .  S
Zn533       O534   1.952       .  S
Zn533       O541   1.974       .  S
Zn533       O544   1.991       .  S
Zn533       O545   2.003       .  S
O535        C547   1.269       .  A
O536        C548   1.269       .  A
O537        C549   1.279       .  A
O538        C547   1.270       .  A
O539        C549   1.268       .  A
O540        C548   1.280       .  A
O541        C550   1.267       .  A
O542        C551   1.269       .  A
O543        C550   1.279       .  A
O544        C551   1.268       .  A
O545        C552   1.269       .  A
O546        C552   1.269       .  A
C547        C710   1.432       .  S
C548        C644   1.440       .  S
C549        C624   1.437       .  S
C550        C633   1.438       .  S
C551        C687   1.424       .  S
C552        C780   1.429       .  S
C553        N554   1.366       .  A
C553        N558   1.352       .  A
C553        C608   1.446       .  S
N554        C555   1.369       .  A
C555        C854   1.493       .  S
C555        N556   1.365   1_445  A
N556        C557   1.360       .  A
C557        N558   1.351   1_665  A
C557        C609   1.437       .  S
Zn559       O563   1.962       .  S
Zn559       O564   2.026       .  S
Zn559       O568   2.016       .  S
Zn559       O575   2.029       .  S
Zn560       O563   1.963       .  S
Zn560       O565   2.016       .  S
Zn560       O567   2.021       .  S
Zn560       O571   2.015       .  S
Zn561       O563   1.964       .  S
Zn561       O566   2.012       .  S
Zn561       O569   2.016       .  S
Zn561       O572   2.021       .  S
Zn562       O563   1.938       .  S
Zn562       O570   1.987       .  S
Zn562       O573   1.979       .  S
Zn562       O574   1.983       .  S
O564        C576   1.274       .  A
O565        C577   1.273       .  A
O566        C578   1.273       .  A
O567        C576   1.273       .  A
O568        C578   1.273       .  A
O569        C577   1.273       .  A
O570        C579   1.267       .  A
O571        C580   1.269       .  A
O572        C579   1.269       .  A
O573        C580   1.268       .  A
O574        C581   1.267       .  A
O575        C581   1.271       .  A
C576        C612   1.438       .  S
C577        C640   1.434       .  S
C578        C620   1.433       .  S
C579        C654   1.430       .  S
C580        C726   1.425       .  S
C581        C786   1.430       .  S
Zn582       O586   1.977       .  S
Zn582       O587   2.074       .  S
Zn582       O591   2.091       .  S
Zn582       O598   2.070       .  S
Zn583       O586   1.954       .  S
Zn583       O588   2.002       .  S
Zn583       O590   1.979       .  S
Zn583       O594   2.006       .  S
Zn584       O586   1.944       .  S
Zn584       O589   1.972       .  S
Zn584       O592   1.989       .  S
Zn584       O595   1.993       .  S
Zn585       O586   1.950       .  S
Zn585       O593   2.001       .  S
Zn585       O596   2.002       .  S
Zn585       O597   1.969       .  S
O587        C599   1.280       .  A
O588        C600   1.269       .  A
O589        C601   1.266       .  A
O590        C599   1.268       .  A
O591        C601   1.282       .  A
O592        C600   1.268       .  A
O593        C602   1.268       .  A
O594        C603   1.269       .  A
O595        C602   1.268       .  A
O596        C603   1.269       .  A
O597        C604   1.267       .  A
O598        C604   1.280       .  A
C599        C632   1.439       .  S
C600        C800   1.424       .  S
C601        C605   1.444       .  S
C602        C717   1.425       .  S
C603        C656   1.429       .  S
C604        C648   1.435       .  S
C605        C606   1.212       .  T
C606        C607   1.423       .  S
C607        C608   1.213       .  T
C609        C610   1.207       .  T
C610        C611   1.415       .  S
C611        C612   1.207       .  T
C613        C614   1.207       .  T
C614        C615   1.414       .  S
C615        C616   1.207       .  T
C617        C618   1.205       .  T
C618        C619   1.412       .  S
C619        C620   1.205       .  T
C621        C622   1.208       .  T
C622        C623   1.416       .  S
C623        C624   1.208       .  T
C625        C626   1.209       .  T
C626        C627   1.417       .  S
C627        C628   1.209       .  T
C629        C630   1.209       .  T
C630        C631   1.417       .  S
C631        C632   1.209       .  T
C633        C634   1.208       .  T
C634        C635   1.417       .  S
C635        C636   1.208       .  T
C637        C638   1.205       .  T
C638        C639   1.411       .  S
C639        C640   1.205       .  T
C641        C642   1.209       .  T
C642        C643   1.419       .  S
C643        C644   1.210       .  T
C645        C646   1.206       .  T
C646        C647   1.414       .  S
C647        C648   1.206       .  T
C649        C650   1.206       .  T
C650        C651   1.413       .  S
C651        C652   1.206       .  T
C653        C654   1.203       .  T
C655        C656   1.202       .  T
C657        C658   1.206       .  T
C658        C659   1.413       .  S
C659        C660   1.206       .  T
C661        C662   1.204       .  T
C662        C663   1.410       .  S
C663        C664   1.204       .  T
C665        C666   1.203       .  T
C666        C667   1.407       .  S
C667        C668   1.202       .  T
C669        C670   1.203       .  T
C671        C672   1.206       .  T
C672        C673   1.412       .  S
C673        C674   1.206       .  T
C675        C676   1.209       .  T
C676        C677   1.417       .  S
C677        C678   1.209       .  T
C679        C680   1.210       .  T
C680        C681   1.419       .  S
C681        C682   1.210       .  T
C683        C684   1.203       .  T
C684        C685   1.408       .  S
C685        C686   1.203       .  T
C687        C688   1.199       .  T
C689        C690   1.209       .  T
C690        C691   1.418       .  S
C691        C692   1.209       .  T
C693        C694   1.210       .  T
C694        C695   1.420       .  S
C695        C696   1.210       .  T
C697        C698   1.211       .  T
C698        C699   1.421       .  S
C699        C700   1.211       .  T
C701        C702   1.211       .  T
C702        C703   1.420       .  S
C703        C704   1.211       .  T
C705        C706   1.208       .  T
C706        C707   1.417       .  S
C707        C708   1.208       .  T
C709        C710   1.204       .  T
C711        C712   1.206       .  T
C713        C714   1.202       .  T
C715        C716   1.201       .  T
C717        C718   1.200       .  T
C719        C720   1.200       .  T
C721        C722   1.210       .  T
C722        C723   1.418       .  S
C723        C724   1.209       .  T
C725        C726   1.200       .  T
C727        C728   1.202       .  T
C729        C730   1.209       .  T
C730        C731   1.417       .  S
C731        C732   1.209       .  T
C733        C734   1.207       .  T
C734        C735   1.415       .  S
C735        C736   1.207       .  T
C737        C738   1.210       .  T
C738        C739   1.418       .  S
C739        C740   1.209       .  T
C741        C742   1.205       .  T
C742        C743   1.412       .  S
C743        C744   1.205       .  T
C745        C746   1.207       .  T
C746        C747   1.415       .  S
C747        C748   1.207       .  T
C749        C750   1.206       .  T
C750        C751   1.413       .  S
C751        C752   1.206       .  T
C753        C754   1.209       .  T
C754        C755   1.417       .  S
C755        C756   1.208       .  T
C757        C758   1.208       .  T
C758        C759   1.416       .  S
C759        C760   1.208       .  T
C761        C762   1.209       .  T
C762        C763   1.418       .  S
C763        C764   1.209       .  T
C765        C766   1.209       .  T
C766        C767   1.417       .  S
C767        C768   1.208       .  T
C769        C770   1.210       .  T
C770        C771   1.420       .  S
C771        C772   1.210       .  T
C773        C774   1.200       .  T
C775        C776   1.202       .  T
C777        C778   1.201       .  T
C779        C780   1.202       .  T
C781        C782   1.202       .  T
C783        C784   1.203       .  T
C785        C786   1.203       .  T
C787        C788   1.200       .  T
C789        C790   1.202       .  T
C791        C792   1.207       .  T
C792        C793   1.414       .  S
C793        C794   1.207       .  T
C795        C796   1.206       .  T
C796        C797   1.413       .  S
C797        C798   1.206       .  T
C799        C800   1.199       .  T
C801        C802   1.202       .  T
C803        C804   1.200       .  T
C805        C806   1.204       .  T
C806        C807   1.409       .  S
C807        C808   1.203       .  T
C809        C810   1.209       .  T
C810        C811   1.417       .  S
C811        C812   1.208       .  T
C813        C814   1.207       .  T
C814        C815   1.415       .  S
C815        C816   1.207       .  T
C817        C818   1.209       .  T
C818        C819   1.418       .  S
C819        C820   1.209       .  T
C821        C822   1.206       .  T
C822        C823   1.414       .  S
C823        C824   1.207       .  T
C825        C826   1.204       .  T
C826        C827   1.410       .  S
C827        C828   1.205       .  T
C829        C830   1.206       .  T
C830        C831   1.413       .  S
C831        C832   1.206       .  T
C833        C834   1.209       .  T
C834        C835   1.418       .  S
C835        C836   1.209       .  T
C837        C838   1.210       .  T
C838        C839   1.419       .  S
C839        C840   1.210       .  T
C841        C842   1.206       .  T
C842        C843   1.413       .  S
C843        C844   1.206       .  T
C845        C846   1.348   1_545  D
C845        H847   1.086       .  S
C846        H848   1.086       .  S
C849        C850   1.347   1_456  D
C849        H851   1.086       .  S
C850        H852   1.087       .  S
C853        C854   1.350   1_655  D
C853        H855   1.086       .  S
C854        H856   1.086       .  S
C857        C858   1.347   1_554  D
C857        H859   1.087       .  S
C858        H860   1.086       .  S
C861        C862   1.347   1_554  D
C861        H863   1.086       .  S
C862        H864   1.086       .  S
C865        C866   1.348   1_565  D
C865        H867   1.087       .  S
C866        H868   1.086       .  S
C869        C870   1.347   1_455  D
C869        H871   1.085       .  S
C870        H872   1.085       .  S
C873        C874   1.350       .  D
C873        H875   1.089       .  S
C874        H876   1.089       .  S
C877        C878   1.345       .  D
C877        H879   1.087       .  S
C878        H880   1.087   1_455  S
C881        C882   1.345       .  D
C881        H883   1.083       .  S
C882        H884   1.082       .  S
C885        C886   1.349   1_655  D
C885        H887   1.088       .  S
C886        H888   1.088       .  S
C889        C890   1.344   1_455  D
C889        H891   1.085       .  S
C890        H892   1.085       .  S
C893        C894   1.348       .  D
C893        H895   1.087       .  S
C894        H896   1.087       .  S
C897        C898   1.344   1_545  D
C897        H899   1.087       .  S
C898        H900   1.087       .  S
C901        C902   1.350   1_545  D
C901        H903   1.088       .  S
C902        H904   1.088       .  S
C905        C906   1.344       .  D
C905        H907   1.085       .  S
C906        H908   1.086       .  S
C909        C910   1.348   1_545  D
C909        H911   1.087       .  S
C910        H912   1.088       .  S
C913        C914   1.347   1_565  D
C913        H915   1.087       .  S
C914        H916   1.087       .  S
C917        C918   1.348       .  D
C917        H919   1.087       .  S
C918        H920   1.086       .  S
C921        C922   1.344   1_556  D
C921        H923   1.088       .  S
C922        H924   1.087       .  S
C925        C926   1.347       .  D
C925        H927   1.088       .  S
C926        H928   1.088       .  S
C929        C930   1.349       .  D
C929        H931   1.086       .  S
C930        H932   1.086       .  S
C933        C934   1.345       .  D
C933        H935   1.085       .  S
C934        H936   1.086   1_556  S
C937        C938   1.349       .  D
C937        H939   1.086       .  S
C938        H940   1.086       .  S
