geometry optimzed in LAMMPS
_audit_creation_date              2020-11-30 
_audit_creation_method            'lammps2cif' 
_symmetry_space_group_name_H-M    'P1' 
_symmetry_Int_Tables_number       1 
_symmetry_cell_setting            triclinic 
loop_ 
_symmetry_equiv_pos_as_xyz 
  x,y,z 
_cell_length_a                    39.55233465 
_cell_length_b                    39.577673599507115 
_cell_length_c                    99.27864566639052 
_cell_angle_alpha                 89.86725342815883 
_cell_angle_beta                  90.21774905231689 
_cell_angle_gamma                 120.41549473320852 
loop_ 
_atom_site_label 
_atom_site_type_symbol 
_atom_site_fract_x 
_atom_site_fract_y 
_atom_site_fract_z 
_atom_site_charge 
C1          C  0.65123670  0.07432814  0.73421097     0.80300
N2          N  0.61732688  0.04215461  0.73019315    -0.78000
C3          C  0.61640594  0.02270554  0.71881439     0.82800
N4          N  0.64956137  0.03597032  0.71142938    -0.77900
C5          C  0.68358050  0.06809288  0.71527674     0.82900
N6          N  0.68430904  0.08691657  0.72680252    -0.79600
C7          C  0.96193289  0.17206787  0.64045031     0.80300
N8          N  0.99575326  0.20467876  0.64435307    -0.78000
C9          C  0.99741177  0.22329246  0.65603286     0.82800
N10         N  0.96505928  0.20923881  0.66387783    -0.77900
C11         C  0.93099132  0.17714805  0.66006442     0.82900
N12         N  0.92981785  0.15843836  0.64845713    -0.79600
C13         C  0.56936605  0.90392715  0.82002651     0.80300
N14         N  0.54724362  0.88324813  0.80923718    -0.78000
C15         C  0.54720885  0.85044616  0.80509682     0.82800
N16         N  0.56984367  0.83903778  0.81167786    -0.77900
C17         C  0.59212244  0.85940194  0.82238218     0.82900
N18         N  0.59128758  0.89155555  0.82664640    -0.79600
C19         C  0.77051459  0.75673463  0.89534300     0.80300
N20         N  0.76565953  0.72105912  0.89216396    -0.78000
C21         C  0.74580923  0.70200562  0.88083172     0.82800
N22         N  0.73100124  0.71871833  0.87258558    -0.77900
C23         C  0.73616045  0.75444501  0.87553034     0.82900
N24         N  0.75535637  0.77298711  0.88698583    -0.79600
C25         C  0.88006474  0.55187394  0.49193495     0.80300
N26         N  0.89906896  0.53728252  0.49912489    -0.78000
C27         C  0.89762779  0.50378956  0.49520990     0.82800
N28         N  0.87752772  0.48519022  0.48393063    -0.77900
C29         C  0.85798404  0.49912698  0.47673080     0.82900
N30         N  0.85923837  0.53254571  0.48077430    -0.79600
C31         C  0.08498664  0.40600124  0.56490885     0.80300
N32         N  0.08560055  0.37361224  0.56078026    -0.78000
C33         C  0.06703147  0.35470544  0.54927433     0.82800
N34         N  0.04814144  0.36890920  0.54175126    -0.77900
C35         C  0.04778337  0.40155892  0.54569207     0.82900
N36         N  0.06619302  0.41976063  0.55725256    -0.79600
C37         C  0.63981790  0.50217931  0.97902282     0.80300
N38         N  0.67122809  0.53495291  0.98414148    -0.78000
C39         C  0.66892224  0.55039113  0.99611803     0.82800
N40         N  0.63453985  0.53249328  0.00295192    -0.77900
C41         C  0.60279046  0.49983589  0.99801956     0.82900
N42         N  0.60568616  0.48511236  0.98604964    -0.79600
C43         C  0.31226752  0.40775030  0.06464162     0.80300
N44         N  0.27816356  0.37900978  0.05938731    -0.78000
C45         C  0.27775673  0.36148318  0.04764993     0.82800
N46         N  0.31211276  0.37206027  0.04130606    -0.77900
C47         C  0.34659678  0.40043852  0.04662052     0.82900
N48         N  0.34644358  0.41828178  0.05824256    -0.79600
C49         C  0.97802806  0.74951476  0.39444979     0.80300
N50         N  0.94479996  0.71705670  0.39014896    -0.78000
C51         C  0.94488888  0.69818215  0.37873906     0.82800
N52         N  0.97861189  0.71198236  0.37162729    -0.77900
C53         C  0.01208939  0.74422160  0.37581954     0.82900
N54         N  0.01161836  0.76256270  0.38730129    -0.79600
C55         C  0.30472911  0.83062594  0.31040101     0.80300
N56         N  0.33822502  0.86171870  0.31523652    -0.78000
C57         C  0.33804471  0.87996499  0.32678138     0.82800
N58         N  0.30353748  0.86656948  0.33337625    -0.77900
C59         C  0.26980068  0.83567020  0.32868946     0.82900
N60         N  0.27057125  0.81735382  0.31722870    -0.79600
C61         C  0.17739572  0.16055752  0.14832097     0.80300
N62         N  0.17613210  0.19300060  0.15190960    -0.78000
C63         C  0.19033545  0.21013668  0.16406756     0.82800
N64         N  0.20665256  0.19518718  0.17246324    -0.77900
C65         C  0.20799938  0.16277730  0.16898851     0.82900
N66         N  0.19290722  0.14530237  0.15695396    -0.79600
C67         C  0.40863166  0.06704211  0.23254541     0.80300
N68         N  0.40760468  0.03441665  0.22773703    -0.78000
C69         C  0.38367163  0.01415740  0.21726970     0.82800
N70         N  0.36097179  0.02686952  0.21146766    -0.77900
C71         C  0.36145230  0.05911951  0.21632382     0.82900
N72         N  0.38521083  0.07904275  0.22683990    -0.79600
C73         C  0.10659160  0.63819946  0.81006906     0.80300
N74         N  0.07572297  0.60366095  0.81436174    -0.78000
C75         C  0.05731424  0.60191184  0.82611222     0.82800
N76         N  0.06925911  0.63508268  0.83342015    -0.77900
C77         C  0.09985620  0.66966922  0.82916449     0.82900
N78         N  0.11791255  0.67084652  0.81747928    -0.79600
C79         C  0.19420692  0.95719499  0.89732347     0.80300
N80         N  0.18123487  0.92419297  0.88981723    -0.78000
C81         C  0.19942627  0.92503333  0.87813782     0.82800
N82         N  0.23020600  0.95933819  0.87381907    -0.77900
C83         C  0.24290209  0.99258423  0.88109168     0.82900
N84         N  0.22511443  0.99130164  0.89288651    -0.79600
C85         C  0.77358432  0.75434089  0.64696740     0.80300
N86         N  0.78736296  0.73591003  0.65486346    -0.78000
C87         C  0.76773114  0.71636490  0.66609958     0.82800
N88         N  0.73337028  0.71432559  0.66921758    -0.77900
C89         C  0.71896085  0.73220559  0.66129108     0.82900
N90         N  0.73929022  0.75230795  0.65020799    -0.79600
C91         C  0.86690110  0.52585809  0.73513344     0.80300
N92         N  0.89810017  0.52467391  0.73009441    -0.78000
C93         C  0.91609949  0.54506387  0.71874838     0.82800
N94         N  0.90293953  0.56708875  0.71263255    -0.77900
C95         C  0.87163468  0.56834001  0.71765996     0.82900
N96         N  0.85365753  0.54726962  0.72882332    -0.79600
C97         C  0.44601928  0.28704669  0.47844992     0.80300
N98         N  0.45823963  0.31936020  0.48624611    -0.78000
C99         C  0.43941488  0.31738108  0.49790014     0.82800
N100        N  0.40764331  0.28280141  0.50153077    -0.77900
C101        C  0.39501952  0.25034957  0.49379270     0.82900
N102        N  0.41389901  0.25271932  0.48212326    -0.79600
C103        C  0.52850583  0.60443311  0.56746360     0.80300
N104        N  0.51510347  0.57001567  0.56077596    -0.78000
C105        C  0.53454098  0.56787954  0.54987823     0.82800
N106        N  0.56704008  0.60061531  0.54543856    -0.77900
C107        C  0.58026132  0.63522127  0.55189775     0.82900
N108        N  0.56110216  0.63708669  0.56293657    -0.79600
C109        C  0.38495537  0.04834482  0.99226472     0.80300
N110        N  0.40112171  0.06690509  0.98044588    -0.78000
C111        C  0.43246366  0.06622170  0.97516349     0.82800
N112        N  0.44760544  0.04701070  0.98186630    -0.77900
C113        C  0.43143534  0.02804016  0.99353793     0.82900
N114        N  0.40016871  0.02873437  0.99873667    -0.79600
C115        C  0.57751455  0.85400620  0.04727556     0.80300
N116        N  0.56622745  0.87497707  0.03957328    -0.78000
C117        C  0.53522803  0.87856849  0.04326358     0.82800
N118        N  0.51562020  0.86105444  0.05472897    -0.77900
C119        C  0.52663606  0.84014789  0.06252202     0.82900
N120        N  0.55800339  0.83712249  0.05883207    -0.79600
C121        C  0.19977665  0.18851502  0.40060798     0.80300
N122        N  0.23361309  0.19060053  0.39667629    -0.78000
C123        C  0.25380604  0.21278149  0.38593387     0.82800
N124        N  0.23978816  0.23247090  0.37890753    -0.77900
C125        C  0.20614553  0.23089968  0.38273433     0.82900
N126        N  0.18612353  0.20863217  0.39351749    -0.79600
C127        C  0.10557423  0.41286914  0.30990969     0.80300
N128        N  0.12173082  0.39569774  0.31732275    -0.78000
C129        C  0.10425357  0.37568868  0.32872089     0.82800
N130        N  0.06977193  0.37201268  0.33261709    -0.77900
C131        C  0.05332522  0.38920750  0.32543970     0.82900
N132        N  0.07125445  0.40947075  0.31406050    -0.79600
C133        C  0.87792151  0.26938772  0.23703951     0.80300
N134        N  0.86934209  0.23511434  0.23109947    -0.78000
C135        C  0.89217325  0.23411233  0.22115556     0.82800
N136        N  0.92400713  0.26788053  0.21698864    -0.77900
C137        C  0.93323343  0.30252488  0.22283548     0.82900
N138        N  0.91002430  0.30318090  0.23281386    -0.79600
C139        C  0.79250077  0.94881773  0.15095792     0.80300
N140        N  0.81071836  0.98040410  0.15920406    -0.78000
C141        C  0.79435308  0.98125523  0.17109692     0.82800
N142        N  0.75877850  0.95058813  0.17446437    -0.77900
C143        C  0.73972764  0.91906991  0.16622050     0.82900
N144        N  0.75686336  0.91819086  0.15446505    -0.79600
C145        C  0.51826413  0.62136995  0.31272331     0.80300
N146        N  0.53537051  0.65421583  0.32032920    -0.78000
C147        C  0.55437310  0.65563729  0.33184491     0.82800
N148        N  0.55718380  0.62419810  0.33560654    -0.77900
C149        C  0.54051362  0.59099583  0.32803055     0.82900
N150        N  0.52135956  0.59005593  0.31650932    -0.79600
C151        C  0.74412255  0.94260974  0.40123855     0.80300
N152        N  0.72380788  0.90908243  0.39407145    -0.78000
C153        C  0.70608646  0.90856091  0.38232786     0.82800
N154        N  0.70857607  0.94203072  0.37772144    -0.77900
C155        C  0.72952151  0.97614374  0.38461523     0.82900
N156        N  0.74721544  0.97626679  0.39642295    -0.79600
C157        C  0.44306374  0.29098276  0.72953237     0.80300
N158        N  0.43950270  0.32238819  0.72616540    -0.78000
C159        C  0.42036522  0.32199162  0.71467609     0.82800
N160        N  0.40440411  0.28948198  0.70674926    -0.77900
C161        C  0.40792321  0.25813932  0.71007366     0.82900
N162        N  0.42674608  0.25886634  0.72156296    -0.79600
C163        C  0.21943581  0.97549250  0.63933628     0.80300
N164        N  0.24010731  0.00767538  0.64715169    -0.78000
C165        C  0.26043567  0.00685930  0.65806580     0.82800
N166        N  0.25959472  0.97313376  0.66123138    -0.77900
C167        C  0.23888144  0.94062658  0.65356767     0.82900
N168        N  0.21847137  0.94167594  0.64270009    -0.79600
C169        C  0.67245293  0.05506158  0.49380205     0.80300
N170        N  0.67491983  0.07584474  0.48252114    -0.78000
C171        C  0.64215466  0.07428539  0.47742705     0.82800
N172        N  0.60713385  0.05162055  0.48355341    -0.77900
C173        C  0.60433274  0.03070000  0.49475083     0.82900
N174        N  0.63712396  0.03247263  0.49980408    -0.79600
C175        C  0.31305370  0.82808665  0.56093458     0.80300
N176        N  0.34597273  0.84776936  0.55338531    -0.78000
C177        C  0.34613246  0.86736543  0.54212185     0.82800
N178        N  0.31317982  0.86790932  0.53855848    -0.77900
C179        C  0.28008168  0.84854812  0.54611501     0.82900
N180        N  0.28029271  0.82874882  0.55726489    -0.79600
C181        C  0.65914054  0.51396638  0.23101277     0.80300
N182        N  0.69315183  0.53662413  0.22437670    -0.78000
C183        C  0.69397262  0.55787033  0.21353933     0.82800
N184        N  0.66050322  0.55629986  0.20934006    -0.77900
C185        C  0.62635306  0.53400197  0.21608235     0.82900
N186        N  0.62578781  0.51251252  0.22683600    -0.79600
C187        C  0.98437043  0.75122243  0.14655019     0.80300
N188        N  0.01714844  0.75152839  0.15095353    -0.78000
C189        C  0.01658682  0.73337592  0.16267929     0.82800
N190        N  0.98277536  0.71393451  0.16977394    -0.77900
C191        C  0.94987863  0.71311958  0.16540995     0.82900
N192        N  0.95093412  0.73192138  0.15386030    -0.79600
C193        C  0.88576137  0.30372978  0.97369404     0.80300
N194        N  0.91114744  0.33924137  0.97907965    -0.78000
C195        C  0.93492194  0.34267865  0.98949431     0.82800
N196        N  0.93266486  0.30996431  0.99471909    -0.77900
C197        C  0.90726352  0.27405941  0.98959009     0.82900
N198        N  0.88384399  0.27104470  0.97900825    -0.79600
C199        C  0.11575488  0.62578145  0.06003185     0.80300
N200        N  0.11597460  0.65904310  0.05640669    -0.78000
C201        C  0.10076560  0.66122711  0.04432603     0.82800
N202        N  0.08496794  0.62965691  0.03596572    -0.77900
C203        C  0.08533013  0.59665191  0.03946781     0.82900
N204        N  0.10053247  0.59492242  0.05150136    -0.79600
C205        C  0.30672011  0.41132844  0.81213805     0.80300
N206        N  0.27507349  0.39319878  0.82031837    -0.78000
C207        C  0.27637082  0.37561929  0.83186828     0.82800
N208        N  0.30990795  0.37637913  0.83540611    -0.77900
C209        C  0.34166730  0.39386311  0.82722901     0.82900
N210        N  0.33996552  0.41109490  0.81557960    -0.79600
C211        C  0.99544292  0.19602550  0.90445783     0.80300
N212        N  0.96215873  0.19488745  0.90024517    -0.78000
C213        C  0.96272092  0.21579103  0.88928319     0.82800
N214        N  0.99691681  0.23738452  0.88248956    -0.77900
C215        C  0.03022214  0.23867187  0.88666352     0.82900
N216        N  0.02922454  0.21757512  0.89755302    -0.79600
O217        O  0.62263301  0.21449821  0.82104442    -0.80000
O218        O  0.77168265  0.38918579  0.86185720    -0.81600
O219        O  0.72268807  0.34253500  0.81917821    -0.78600
O220        O  0.74316211  0.26996119  0.84822136    -0.77000
O221        O  0.71104985  0.23453786  0.86701886    -0.78800
O222        O  0.68616201  0.37259146  0.81929559    -0.79700
O223        O  0.77424197  0.35647384  0.84328443    -0.81000
O224        O  0.68955175  0.25326185  0.82104830    -0.81300
Eu225      Eu  0.70797058  0.30159242  0.83925688     2.39200
O226        O  0.70847198  0.30279042  0.86290992    -0.88800
O227        O  0.64863943  0.29417437  0.83129679    -0.92400
C228        C  0.65699074  0.22473570  0.81645197     1.02300
C229        C  0.78997659  0.38482122  0.85184791     1.02100
C230        C  0.71188857  0.36565612  0.81413272     1.02000
C231        C  0.73936821  0.24815748  0.85846422     0.99900
H232        H  0.72287216  0.37949882  0.84295314     0.29600
O233        O  0.70210667  0.35506920  0.84651575    -1.01200
H234        H  0.65982273  0.22165205  0.84469844     0.29700
O235        O  0.65611402  0.24275154  0.84767612    -1.03700
O236        O  0.67746994  0.37561719  0.88930699    -0.81000
O237        O  0.52788010  0.20370252  0.84680721    -0.80500
O238        O  0.67699155  0.41620489  0.84638801    -0.78900
O239        O  0.70142074  0.27243036  0.89037429    -0.82300
O240        O  0.62134325  0.17481876  0.86414307    -0.80100
O241        O  0.59627770  0.31829944  0.81989198    -0.78800
O242        O  0.55872966  0.32798050  0.86265825    -0.80300
O243        O  0.57020359  0.24630474  0.88928981    -0.82200
O244        O  0.58993390  0.36071779  0.84354488    -0.79000
O245        O  0.60824466  0.21775609  0.89000975    -0.81600
O246        O  0.71370591  0.42081113  0.86484182    -0.77400
O247        O  0.56966238  0.25162876  0.82013646    -0.77400
O248        O  0.58412653  0.16968836  0.84571673    -0.77100
O249        O  0.73271111  0.33941794  0.88926228    -0.80600
O250        O  0.61038011  0.33744763  0.88920383    -0.80000
O251        O  0.52471296  0.23804438  0.86476485    -0.78300
Eu252      Eu  0.70340850  0.35617101  0.87024080     2.39800
Eu253      Eu  0.59661641  0.23515890  0.83968097     2.39600
Eu254      Eu  0.64248491  0.34728921  0.83871564     2.38400
Eu255      Eu  0.65566880  0.24420654  0.87134423     2.39900
Eu256      Eu  0.59084149  0.29124432  0.87029800     2.39800
O257        O  0.59653454  0.23734307  0.86332045    -0.92700
O258        O  0.64407964  0.34952206  0.86230209    -0.91600
C259        C  0.64316088  0.36483489  0.89408157     1.02400
C260        C  0.50899885  0.20990723  0.85613179     1.01200
C261        C  0.70031189  0.43555394  0.85621699     1.00600
C262        C  0.72625307  0.30703211  0.89474956     1.02600
C263        C  0.59742383  0.15516160  0.85446889     1.01500
C264        C  0.57343825  0.28354900  0.81522118     1.00300
C265        C  0.56318496  0.35059471  0.85254551     1.00400
C266        C  0.58020639  0.22262476  0.89430747     1.03000
H267        H  0.56524331  0.28454444  0.84344033     0.30400
O268        O  0.58986292  0.28819261  0.84674471    -1.04900
H269        H  0.65001746  0.29826226  0.88827303     0.32400
O270        O  0.64993847  0.29770617  0.87854721    -1.07400
O271        O  0.93288279  0.87884114  0.98645909    -0.80000
O272        O  0.95452545  0.04918539  0.02879107    -0.81600
O273        O  0.86161574  0.92601663  0.01360409    -0.78600
O274        O  0.95494700  0.00419320  0.98620534    -0.77000
O275        O  0.02193899  0.03611888  0.98663967    -0.78800
O276        O  0.85879892  0.89040915  0.03221290    -0.79700
O277        O  0.91937916  0.01589116  0.01020734    -0.81000
O278        O  0.90117642  0.91381903  0.98712400    -0.81300
Eu279      Eu  0.92956984  0.96095801  0.00573680     2.39200
O280        O  0.98838547  0.01469331  0.01338985    -0.88800
O281        O  0.92456205  0.90261322  0.01342858    -0.92400
C282        C  0.90763732  0.88765456  0.98200960     1.02300
C283        C  0.93226758  0.04470212  0.01854916     1.02100
C284        C  0.84343050  0.90315886  0.02359331     1.02000
C285        C  0.98898945  0.02891573  0.98149037     0.99900
H286        H  0.90910815  0.96546403  0.03279805     0.29600
O287        O  0.93010119  0.96216390  0.02941120    -1.01200
H288        H  0.98219210  0.95600220  0.98795144     0.29700
O289        O  0.98270490  0.95620455  0.99766956    -1.03700
O290        O  0.03402148  0.03393931  0.05617735    -0.81000
O291        O  0.01572535  0.86705952  0.01291810    -0.80500
O292        O  0.90770465  0.92882516  0.05665667    -0.78900
O293        O  0.07161698  0.07882454  0.01221433    -0.82300
O294        O  0.05784208  0.98443370  0.98562643    -0.80100
O295        O  0.89214432  0.83481931  0.02899250    -0.78800
O296        O  0.01120516  0.90642860  0.05601924    -0.80300
O297        O  0.10626449  0.98820638  0.02865718    -0.82200
O298        O  0.94415695  0.87725717  0.05610404    -0.79000
O299        O  0.10756111  0.02265448  0.00993464    -0.81600
O300        O  0.94501846  0.99588685  0.05659215    -0.77400
O301        O  0.92420776  0.83240010  0.01017636    -0.77400
O302        O  0.02274945  0.91735922  0.98621068    -0.77100
O303        O  0.04066954  0.08195465  0.03123312    -0.80600
O304        O  0.06297252  0.99633092  0.05627842    -0.80000
O305        O  0.05107624  0.89923098  0.03171744    -0.78300
Eu306      Eu  0.98922375  0.01556615  0.03698750     2.39800
Eu307      Eu  0.97828732  0.89819672  0.00555195     2.39600
Eu308      Eu  0.92499777  0.90328310  0.03702694     2.38400
Eu309      Eu  0.04142711  0.00985268  0.00547247     2.39900
Eu310      Eu  0.03766750  0.95182022  0.03685643     2.39800
O311        O  0.03729883  0.95173186  0.01320291    -0.92700
O312        O  0.98427196  0.95692877  0.04456819    -0.91600
C313        C  0.05700184  0.02298012  0.06124114     1.02400
C314        C  0.03893504  0.87173987  0.02284545     1.01200
C315        C  0.91847661  0.96289380  0.06163381     1.00600
C316        C  0.06705130  0.09749006  0.02201844     1.02600
C317        C  0.04785819  0.95036024  0.98084169     1.01500
C318        C  0.89659547  0.81666006  0.01896186     1.00300
C319        C  0.97692885  0.88285486  0.06090272     1.00400
C320        C  0.12382238  0.01064850  0.01844731     1.03000
H321        H  0.97500374  0.87353083  0.03246975     0.30400
O322        O  0.97814698  0.89796733  0.02921883    -1.04900
H323        H  0.06753972  0.03230036  0.03232812     0.32400
O324        O  0.04299565  0.01062596  0.02917120    -1.07400
O325        O  0.72857983  0.33046377  0.38684967    -0.80000
O326        O  0.58302529  0.34829253  0.34113668    -0.81600
O327        O  0.70531904  0.41453386  0.36160780    -0.78600
O328        O  0.60848279  0.33178513  0.38670709    -0.77000
O329        O  0.56972280  0.26489684  0.38744865    -0.78800
O330        O  0.73611756  0.41011982  0.34279799    -0.79700
O331        O  0.61837904  0.38061047  0.35994918    -0.81000
O332        O  0.70132261  0.36956935  0.38639832    -0.81300
Eu333      Eu  0.65404693  0.34834547  0.36782193     2.39200
O334        O  0.59432525  0.29478400  0.36061796    -0.88800
O335        O  0.70672714  0.34212561  0.35998904    -0.92400
C336        C  0.72470326  0.35890631  0.39130905     1.02300
C337        C  0.59586937  0.37622219  0.34985804     1.02100
C338        C  0.73134955  0.42978804  0.35226203     1.02000
C339        C  0.58056764  0.29968379  0.39174207     0.99900
H340        H  0.65641894  0.37018816  0.34067989     0.29600
O341        O  0.65283823  0.34596335  0.34422965    -1.01200
H342        H  0.64825928  0.29073536  0.38624061     0.29700
O343        O  0.64766422  0.28993701  0.37651668    -1.03700
O344        O  0.56478122  0.24596714  0.31803481    -0.81000
O345        O  0.71005171  0.22833936  0.36377748    -0.80500
O346        O  0.68377313  0.36342501  0.31670069    -0.78900
O347        O  0.52251388  0.22519109  0.36451582    -0.82300
O348        O  0.60763479  0.20936187  0.38803359    -0.80100
O349        O  0.77166528  0.35418853  0.34181634    -0.78800
O350        O  0.68725043  0.24563218  0.31892010    -0.80300
O351        O  0.58251120  0.16250964  0.34267289    -0.82200
O352        O  0.72503881  0.31261992  0.31793528    -0.79000
O353        O  0.55236314  0.16713650  0.36170904    -0.81600
O354        O  0.61720499  0.33377651  0.31716988    -0.77400
O355        O  0.76806004  0.31842691  0.36047517    -0.77400
O356        O  0.67444317  0.23903114  0.38771801    -0.77100
O357        O  0.52499369  0.25943583  0.34562046    -0.80600
O358        O  0.59509389  0.20971216  0.31762747    -0.80000
O359        O  0.67240976  0.19455692  0.34561398    -0.78300
Eu360      Eu  0.59269265  0.29271444  0.33698656     2.39800
Eu361      Eu  0.69968858  0.28321659  0.36831562     2.39600
Eu362      Eu  0.70516913  0.34016703  0.33628774     2.38400
Eu363      Eu  0.58804692  0.23621491  0.36901404     2.39900
Eu364      Eu  0.63857161  0.22788824  0.33721563     2.39800
O365        O  0.64003003  0.22957125  0.36091118    -0.92700
O366        O  0.64520324  0.28657080  0.32886746    -0.91600
C367        C  0.57109943  0.21973995  0.31282880     1.02400
C368        C  0.69589813  0.19940706  0.35542903     1.01200
C369        C  0.65061895  0.35704200  0.31184332     1.00600
C370        C  0.50685916  0.23740654  0.35583773     1.02600
C371        C  0.64060043  0.21483951  0.39272258     1.01500
C372        C  0.78696650  0.34193124  0.35067001     1.00300
C373        C  0.71547459  0.27787985  0.31395175     1.00400
C374        C  0.55531219  0.14798335  0.35170343     1.03000
H375        H  0.71915913  0.27753858  0.34163923     0.30400
O376        O  0.69810742  0.28119179  0.34470376    -1.04900
H377        H  0.56163763  0.21405071  0.34213047     0.32400
O378        O  0.58649152  0.23477490  0.34530644    -1.07400
O379        O  0.36877026  0.74703211  0.69615587    -0.80000
O380        O  0.34788401  0.57881843  0.65240406    -0.81600
O381        O  0.43444784  0.68740698  0.67583386    -0.78600
O382        O  0.34733411  0.69827453  0.65111487    -0.77000
O383        O  0.28019052  0.66675014  0.65109640    -0.78800
O384        O  0.43165279  0.65456947  0.69519628    -0.79700
O385        O  0.38512040  0.64579446  0.65135405    -0.81000
O386        O  0.40219771  0.74284735  0.67807130    -0.81300
Eu387      Eu  0.36809156  0.67370996  0.67038731     2.39200
O388        O  0.30872412  0.61904434  0.66316921    -0.88800
O389        O  0.36807665  0.67611036  0.69396385    -0.92400
C390        C  0.39717345  0.76201174  0.68765130     1.02300
C391        C  0.37424560  0.61112418  0.64691368     1.02100
C392        C  0.44999246  0.67641767  0.68503046     1.02000
C393        C  0.31408332  0.69129086  0.64621389     0.99900
H394        H  0.38366637  0.61214187  0.67587736     0.29600
O395        O  0.36249364  0.61553765  0.67900876    -1.01200
H396        H  0.31816800  0.70362687  0.67418918     0.29700
O397        O  0.31503188  0.67956263  0.67782083    -1.03700
O398        O  0.24977294  0.49532843  0.67760198    -0.81000
O399        O  0.26882928  0.66382376  0.72029231    -0.80500
O400        O  0.37488994  0.56442809  0.69857754    -0.78900
O401        O  0.22697361  0.57622319  0.65274026    -0.82300
O402        O  0.24328345  0.67833527  0.67467109    -0.80100
O403        O  0.39136617  0.66854322  0.72071882    -0.78800
O404        O  0.27324758  0.54519546  0.72255389    -0.80300
O405        O  0.18655559  0.55668265  0.69849065    -0.82200
O406        O  0.34019801  0.57726212  0.72255664    -0.79000
O407        O  0.18815232  0.59134529  0.67978556    -0.81600
O408        O  0.33958128  0.52978690  0.68010630    -0.77400
O409        O  0.36048078  0.70413387  0.72025588    -0.77400
O410        O  0.27899437  0.71347007  0.69293096    -0.77100
O411        O  0.25613092  0.53877166  0.65315756    -0.80600
O412        O  0.21930253  0.49990726  0.69641577    -0.80000
O413        O  0.23386981  0.59692293  0.72171146    -0.78300
Eu414      Eu  0.30332557  0.56110379  0.67179594     2.39800
Eu415      Eu  0.31468531  0.68158104  0.70141576     2.39600
Eu416      Eu  0.36355361  0.61894666  0.70266970     2.38400
Eu417      Eu  0.25557838  0.62459657  0.67089946     2.39900
Eu418      Eu  0.25237662  0.56929584  0.70314229     2.39800
O419        O  0.25617465  0.62657547  0.69446871    -0.92700
O420        O  0.30509560  0.56361773  0.69545547    -0.91600
C421        C  0.22244717  0.48044958  0.68656143     1.02400
C422        C  0.24325481  0.63138683  0.72588797     1.01200
C423        C  0.36287822  0.53585173  0.69013514     1.00600
C424        C  0.23181124  0.54833600  0.64833486     1.02600
C425        C  0.25587811  0.70750996  0.68285712     1.01500
C426        C  0.38529392  0.69561638  0.72526035     1.00300
C427        C  0.30657592  0.55299630  0.72763364     1.00400
C428        C  0.17053326  0.56898063  0.68998000     1.03000
H429        H  0.31118897  0.62575435  0.72016832     0.30400
O430        O  0.31064252  0.62452819  0.71044894    -1.04900
H431        H  0.22550944  0.54536108  0.67656370     0.32400
O432        O  0.25033716  0.56700449  0.67950757    -1.07400
O433        O  0.28621480  0.54470699  0.15234076    -0.80000
O434        O  0.44280907  0.71526991  0.19303409    -0.81600
O435        O  0.39320072  0.67304816  0.15101377    -0.78600
O436        O  0.40778842  0.59510948  0.17857984    -0.77000
O437        O  0.37625584  0.56050305  0.19749662    -0.78800
O438        O  0.35926299  0.70561759  0.15132670    -0.79700
O439        O  0.44182918  0.68193670  0.17411397    -0.81000
O440        O  0.35332060  0.58213974  0.15175781    -0.81300
Eu441      Eu  0.37455110  0.62926726  0.17032852     2.39200
O442        O  0.37675362  0.63005887  0.19392461    -0.88800
O443        O  0.31588464  0.62406222  0.16273948    -0.92400
C444        C  0.32001624  0.55435745  0.14739777     1.02300
C445        C  0.45944967  0.70982193  0.18272825     1.02100
C446        C  0.38477366  0.69814537  0.14623724     1.02000
C447        C  0.40418022  0.57327287  0.18877068     0.99900
H448        H  0.39339206  0.70833799  0.17438655     0.29600
O449        O  0.37196930  0.68420098  0.17786374    -1.01200
H450        H  0.32378059  0.54932559  0.17547584     0.29700
O451        O  0.32129879  0.57107408  0.17857321    -1.03700
O452        O  0.35164655  0.70601085  0.22085903    -0.81000
O453        O  0.19510824  0.53461086  0.18045890    -0.80500
O454        O  0.34780781  0.74653327  0.17889241    -0.78900
O455        O  0.36696220  0.59699096  0.22114286    -0.82300
O456        O  0.28338706  0.50339937  0.19551673    -0.80100
O457        O  0.26806478  0.65160042  0.15099391    -0.78800
O458        O  0.23157046  0.66233123  0.19458501    -0.80300
O459        O  0.24288166  0.58100903  0.22159280    -0.82200
O460        O  0.26242953  0.69454793  0.17529965    -0.79000
O461        O  0.27639856  0.54783674  0.22127691    -0.81600
O462        O  0.38635933  0.75060543  0.19676365    -0.77400
O463        O  0.23651519  0.58446467  0.15179261    -0.77400
O464        O  0.24780592  0.49987252  0.17678961    -0.77100
O465        O  0.40028024  0.66404936  0.22068566    -0.80600
O466        O  0.28472738  0.67124682  0.22087465    -0.80000
O467        O  0.19510911  0.57038057  0.19845730    -0.78300
Eu468      Eu  0.37471783  0.68492302  0.20154464     2.39800
Eu469      Eu  0.26227126  0.56625561  0.17124851     2.39600
Eu470      Eu  0.31317139  0.67884213  0.17025781     2.38400
Eu471      Eu  0.32222838  0.57250228  0.20216747     2.39900
Eu472      Eu  0.26197742  0.62421012  0.20211630     2.39800
O473        O  0.26424446  0.56891380  0.19478968    -0.92700
O474        O  0.31630297  0.68079896  0.19384153    -0.91600
C475        C  0.31814559  0.69721770  0.22586209     1.02400
C476        C  0.17808673  0.54065265  0.19048419     1.01200
C477        C  0.37206249  0.76550952  0.18854686     1.00600
C478        C  0.39255930  0.63076989  0.22578649     1.02600
C479        C  0.25978090  0.48455839  0.18572459     1.01500
C480        C  0.24375628  0.61713130  0.14639014     1.00300
C481        C  0.23612610  0.68485194  0.18447018     1.00400
C482        C  0.25149886  0.55609536  0.22642378     1.03000
H483        H  0.23435118  0.61819093  0.17534611     0.30400
O484        O  0.25877572  0.62097121  0.17848315    -1.04900
H485        H  0.32053754  0.62804474  0.21952647     0.32400
O486        O  0.32003040  0.62759762  0.20979863    -1.07400
O487        O  0.00556480  0.03573994  0.55400428    -0.80000
O488        O  0.85683818  0.85925680  0.51334067    -0.81600
O489        O  0.88723570  0.98395645  0.52789032    -0.78600
O490        O  0.90180169  0.90482308  0.55545781    -0.77000
O491        O  0.94154601  0.87830768  0.55605223    -0.78800
O492        O  0.91850380  0.01801215  0.50895660    -0.79700
O493        O  0.85397003  0.89325240  0.53134450    -0.81000
O494        O  0.93866317  0.99592835  0.55431297    -0.81300
Eu495      Eu  0.92001968  0.94835950  0.53592580     2.39200
O496        O  0.92668071  0.89535170  0.52884447    -0.88800
O497        O  0.97245424  0.00690639  0.52756819    -0.92400
C498        C  0.97114454  0.02475749  0.55879453     1.02300
C499        C  0.83807747  0.86425526  0.52301034     1.02100
C500        C  0.89145390  0.00686550  0.51792653     1.02000
C501        C  0.91371471  0.88291039  0.56076872     0.99900
H502        H  0.89343415  0.94148573  0.50909803     0.29600
O503        O  0.91825306  0.94549625  0.51231326    -1.01200
H504        H  0.98084689  0.95777156  0.55367759     0.29700
O505        O  0.98021878  0.95678639  0.54396213    -1.03700
O506        O  0.95047042  0.87420217  0.48584410    -0.81000
O507        O  0.10119489  0.04829988  0.52678671    -0.80500
O508        O  0.92484151  0.97538710  0.48519539    -0.78900
O509        O  0.95009446  0.83391110  0.53031113    -0.82300
O510        O  0.03551593  0.93331520  0.55476933    -0.80100
O511        O  0.00554730  0.07370211  0.51129097    -0.78800
O512        O  0.05390147  0.00328291  0.48467052    -0.80300
O513        O  0.06849437  0.92327723  0.51176443    -0.82200
O514        O  0.01572046  0.03147030  0.48483467    -0.79000
O515        O  0.03850591  0.88959306  0.53096185    -0.81600
O516        O  0.89621257  0.90851028  0.48591239    -0.77400
O517        O  0.04310217  0.08037950  0.52975976    -0.77400
O518        O  0.06317586  0.00006185  0.55407097    -0.77100
O519        O  0.91352177  0.82774371  0.51154471    -0.80600
O520        O  0.01716961  0.91478615  0.48515238    -0.80000
O521        O  0.10350653  0.01403774  0.50865776    -0.78300
Eu522      Eu  0.92505206  0.89267948  0.50520172     2.39800
Eu523      Eu  0.03267669  0.01560079  0.53531282     2.39600
Eu524      Eu  0.97085187  0.00460040  0.50399388     2.38400
Eu525      Eu  0.98658273  0.90366975  0.53663962     2.39900
Eu526      Eu  0.03688261  0.96010185  0.50431255     2.39800
O527        O  0.03871021  0.96245093  0.52799555    -0.92700
O528        O  0.97691185  0.95160428  0.49659248    -0.91600
C529        C  0.98451491  0.88635371  0.48060841     1.02400
C530        C  0.11959441  0.04290974  0.51701813     1.01200
C531        C  0.90112583  0.94064179  0.48071954     1.00600
C532        C  0.92598943  0.81368377  0.52077798     1.02600
C533        C  0.05984586  0.96829140  0.55897567     1.01500
C534        C  0.02893628  0.09396387  0.52097693     1.00300
C535        C  0.04306536  0.02664996  0.47987229     1.00400
C536        C  0.06482228  0.90054549  0.52169912     1.03000
H537        H  0.05160692  0.03789119  0.50805878     0.30400
O538        O  0.03089239  0.01342963  0.51164052    -1.04900
H539        H  0.98863167  0.88000663  0.50982404     0.32400
O540        O  0.98528713  0.90121192  0.51290920    -1.07400
C541        C  0.97761741  0.14792076  0.93879899    -0.22300
C542        C  0.99333035  0.12358288  0.93683613     0.09600
C543        C  0.01018071  0.12352804  0.92436723     0.10000
C544        C  0.01054246  0.14774858  0.91400785    -0.17300
C545        C  0.99476210  0.17215268  0.91592188    -0.27700
C546        C  0.97904784  0.17306631  0.92859930     0.18400
C547        C  0.99308029  0.09941872  0.94816783     0.12300
C548        C  0.02820052  0.09837313  0.92207641    -0.12000
H549        H  0.02297229  0.14746226  0.90432205     0.12600
C550        C  0.96576653  0.20159117  0.93202095    -0.22900
H551        H  0.96533773  0.14821011  0.94852047     0.08300
C552        C  0.01949719  0.11619905  0.95902163     0.04600
C553        C  0.01799692  0.09214184  0.96961201    -0.20100
C554        C  0.99043878  0.05187548  0.96962281    -0.12400
C555        C  0.96435510  0.03497150  0.95861146     0.13300
C556        C  0.96605442  0.05913015  0.94799143    -0.22800
C557        C  0.04940351  0.15935480  0.95937750    -0.05900
H558        H  0.03784962  0.10499246  0.97808750     0.14800
C559        C  0.93549775  0.99154483  0.95778743    -0.16100
H560        H  0.94612476  0.04666442  0.93951891     0.09200
H561        H  0.98131769  0.21818959  0.94122286     0.07000
H562        H  0.93374793  0.18540260  0.93399139     0.08200
H563        H  0.97241072  0.22352036  0.92400535     0.07300
H564        H  0.00557843  0.06697461  0.92319521     0.02100
H565        H  0.05200595  0.10600023  0.92952973     0.02600
H566        H  0.04091386  0.10262742  0.91182885     0.06100
H567        H  0.06835472  0.16735666  0.96847588     0.05100
H568        H  0.03443720  0.17667239  0.95949603    -0.00700
H569        H  0.06848876  0.16744825  0.95036055     0.00800
H570        H  0.91307086  0.98257531  0.96579625     0.04500
H571        H  0.95115090  0.97499967  0.95889059     0.06400
H572        H  0.91977561  0.98331057  0.94797466     0.07300
C573        C  0.86328492  0.21007220  0.88744982    -0.22300
C574        C  0.86256525  0.21922235  0.87387683     0.09600
C575        C  0.89361302  0.22575560  0.86535265     0.10000
C576        C  0.92498547  0.22297512  0.87062860    -0.17300
C577        C  0.92664167  0.21477469  0.88435253    -0.27700
C578        C  0.89499343  0.20797524  0.89287791     0.18400
C579        C  0.83092554  0.22573537  0.86916335     0.12300
C580        C  0.89396284  0.23646467  0.85075855    -0.12000
H581        H  0.94874365  0.22796982  0.86397612     0.12600
C582        C  0.89489912  0.20060650  0.90777821    -0.22900
H583        H  0.83938639  0.20580827  0.89391089     0.08300
C584        C  0.79458548  0.19484512  0.86454868     0.04600
C585        C  0.76517487  0.20291889  0.86068223    -0.20100
C586        C  0.77167310  0.24116611  0.86140551    -0.12400
C587        C  0.80806447  0.27191999  0.86620082     0.13300
C588        C  0.83735698  0.26380711  0.86985914    -0.22800
C589        C  0.78688826  0.15354384  0.86387942    -0.05900
H590        H  0.73693610  0.17935809  0.85727189     0.14800
C591        C  0.81660037  0.31326010  0.86826819    -0.16100
H592        H  0.86521360  0.28724748  0.87361629     0.09200
H593        H  0.89469625  0.17283352  0.90958309     0.07000
H594        H  0.86859146  0.19787632  0.91281471     0.08200
H595        H  0.92100639  0.22554356  0.91252869     0.07300
H596        H  0.89370188  0.26432538  0.84999966     0.02100
H597        H  0.86771112  0.21291675  0.84555572     0.02600
H598        H  0.92043350  0.24045702  0.84546414     0.06100
H599        H  0.75697665  0.13289310  0.86001584     0.05100
H600        H  0.78967872  0.14370446  0.87409268    -0.00700
H601        H  0.80843656  0.15231244  0.85707005     0.00800
H602        H  0.82372988  0.32131365  0.87902935     0.04500
H603        H  0.79182844  0.31750519  0.86556496     0.06400
H604        H  0.84237064  0.33360082  0.86213913     0.07300
C605        C  0.27958970  0.46354986  0.78543769    -0.22300
C606        C  0.30523595  0.46775602  0.77507474     0.09600
C607        C  0.33091299  0.45318629  0.77673786     0.10000
C608        C  0.33037986  0.43461471  0.78886064    -0.17300
C609        C  0.30482995  0.43038554  0.79941942    -0.27700
C610        C  0.27887469  0.44509126  0.79759784     0.18400
C611        C  0.30550957  0.48893833  0.76276444     0.12300
C612        C  0.35880748  0.45727625  0.76570965    -0.12000
H613        H  0.35009274  0.42331457  0.79006219     0.12600
C614        C  0.25109703  0.44288150  0.80841010    -0.22900
H615        H  0.26022815  0.47520525  0.78400239     0.08300
C616        C  0.27754035  0.47029524  0.75244459     0.04600
C617        C  0.27819567  0.49211338  0.74119509    -0.20100
C618        C  0.30639493  0.53206465  0.74001147    -0.12400
C619        C  0.33421214  0.55080917  0.75050117     0.13300
C620        C  0.33328791  0.52887968  0.76175348    -0.22800
C621        C  0.24731042  0.42735190  0.75327300    -0.05900
H622        H  0.25702164  0.47773025  0.73316549     0.14800
C623        C  0.36406165  0.59406632  0.75019451    -0.16100
H624        H  0.35421881  0.54293814  0.76987525     0.09200
H625        H  0.22845265  0.41189529  0.81034524     0.07000
H626        H  0.23536439  0.45835373  0.80541494     0.08200
H627        H  0.26761899  0.45682654  0.81779720     0.07300
H628        H  0.37912610  0.48875455  0.76350084     0.02100
H629        H  0.34204219  0.44247144  0.75645100     0.02600
H630        H  0.37664753  0.44392621  0.76858303     0.06100
H631        H  0.22789010  0.41727306  0.74427204     0.05100
H632        H  0.22871795  0.42166715  0.76230520    -0.00700
H633        H  0.26214497  0.40994420  0.75398696     0.00800
H634        H  0.38107036  0.60404506  0.75973762     0.04500
H635        H  0.34906723  0.61113575  0.74873171     0.06400
H636        H  0.38538829  0.60067739  0.74195324     0.07300
C637        C  0.41888462  0.36420730  0.82780920    -0.22300
C638        C  0.44107295  0.38480205  0.83911252     0.09600
C639        C  0.43165981  0.40990143  0.84613417     0.10000
C640        C  0.39936473  0.41296527  0.84191461    -0.17300
C641        C  0.37690892  0.39200733  0.83070210    -0.27700
C642        C  0.38683494  0.36753321  0.82351207     0.18400
C643        C  0.47300717  0.37825985  0.84370486     0.12300
C644        C  0.45540384  0.43294056  0.85815382    -0.12000
H645        H  0.39141814  0.43154176  0.84742031     0.12600
C646        C  0.36275392  0.34386669  0.81162539    -0.22900
H647        H  0.42628757  0.34492109  0.82250107     0.08300
C648        C  0.46529128  0.34648186  0.85213220     0.04600
C649        C  0.49596087  0.33997091  0.85563106    -0.20100
C650        C  0.53403987  0.36361040  0.85050200    -0.12400
C651        C  0.54199529  0.39685605  0.84256301     0.13300
C652        C  0.51129950  0.40365447  0.83932219    -0.22800
C653        C  0.42444977  0.31906389  0.85720720    -0.05900
H654        H  0.48969461  0.31527544  0.86197833     0.14800
C655        C  0.58258595  0.42578706  0.83755923    -0.16100
H656        H  0.51695152  0.42843456  0.83305372     0.09200
H657        H  0.37400888  0.32553611  0.80736137     0.07000
H658        H  0.36356884  0.36375469  0.80356828     0.08200
H659        H  0.33190245  0.32414431  0.81477956     0.07300
H660        H  0.48631395  0.45280733  0.85510687     0.02100
H661        H  0.45446663  0.41265028  0.86607730     0.02600
H662        H  0.44402990  0.45105152  0.86252084     0.06100
H663        H  0.42352676  0.29631989  0.86399046     0.05100
H664        H  0.40444447  0.30417017  0.84857423    -0.00700
H665        H  0.41370072  0.33578794  0.86294419     0.00800
H666        H  0.59182339  0.41213936  0.82975120     0.04500
H667        H  0.60368946  0.43625055  0.84610120     0.06400
H668        H  0.58372647  0.45184065  0.83285845     0.07300
C669        C  0.19052728  0.29926104  0.85229261    -0.22300
C670        C  0.17235599  0.32044692  0.85587118     0.09600
C671        C  0.18867005  0.35974490  0.85177823     0.10000
C672        C  0.22302590  0.37707335  0.84407835    -0.17300
C673        C  0.24123699  0.35587826  0.84038831    -0.27700
C674        C  0.22448261  0.31622946  0.84439317     0.18400
C675        C  0.13553782  0.30040109  0.86358662     0.12300
C676        C  0.16943878  0.38304755  0.85535838    -0.12000
H677        H  0.23569342  0.40729023  0.84086444     0.12600
C678        C  0.24002803  0.29019821  0.83999276    -0.22900
H679        H  0.17741322  0.26886923  0.85536380     0.08300
C680        C  0.09932707  0.27593460  0.85715981     0.04600
C681        C  0.06522545  0.25669553  0.86494430    -0.20100
C682        C  0.06676277  0.26116550  0.87898559    -0.12400
C683        C  0.10299678  0.28650646  0.88536932     0.13300
C684        C  0.13704672  0.30582014  0.87754660    -0.22800
C685        C  0.09675652  0.27027799  0.84211132    -0.05900
H686        H  0.03734573  0.23746141  0.86008714     0.14800
C687        C  0.10580610  0.29426705  0.90031091    -0.16100
H688        H  0.16505053  0.32511494  0.88231561     0.09200
H689        H  0.21635663  0.26399798  0.83479685     0.07000
H690        H  0.24966784  0.28043517  0.84896104     0.08200
H691        H  0.26482410  0.30446137  0.83287258     0.07300
H692        H  0.16818881  0.38514105  0.86647444     0.02100
H693        H  0.13919162  0.36843977  0.85119946     0.02600
H694        H  0.18582399  0.41325864  0.85122073     0.06100
H695        H  0.06609756  0.25051220  0.83871420     0.05100
H696        H  0.11455454  0.25719748  0.83897457    -0.00700
H697        H  0.10796714  0.29898800  0.83701378     0.00800
H698        H  0.09812394  0.26715745  0.90598899     0.04500
H699        H  0.08561438  0.30483364  0.90316468     0.06400
H700        H  0.13594430  0.31693491  0.90337091     0.07300
C701        C  0.21195794  0.60351966  0.10983413    -0.22300
C702        C  0.18513069  0.61672337  0.11009083     0.09600
C703        C  0.17579381  0.62767172  0.12240322     0.10000
C704        C  0.19535966  0.62738122  0.13416719    -0.17300
C705        C  0.22296505  0.61510917  0.13387925    -0.27700
C706        C  0.23092666  0.60231815  0.12162283     0.18400
C707        C  0.16756449  0.61948133  0.09730014     0.12300
C708        C  0.14519601  0.63955778  0.12307080    -0.12000
H709        H  0.18905746  0.63664729  0.14363374     0.12600
C710        C  0.25996533  0.58837901  0.12050970    -0.22900
H711        H  0.21855268  0.59466546  0.10033477     0.08300
C712        C  0.18649795  0.65326221  0.08915665     0.04600
C713        C  0.16838849  0.65490516  0.07720487    -0.20100
C714        C  0.13231851  0.62308375  0.07307402    -0.12400
C715        C  0.11345216  0.58908905  0.08128262     0.13300
C716        C  0.13130250  0.58793211  0.09336236    -0.22800
C717        C  0.22588583  0.68737762  0.09306515    -0.05900
H718        H  0.18291998  0.68075531  0.07088399     0.14800
C719        C  0.07419224  0.55426805  0.07760823    -0.16100
H720        H  0.11707473  0.56222966  0.09976543     0.09200
H721        H  0.28316399  0.60698116  0.11317445     0.07000
H722        H  0.24469467  0.55760335  0.11688342     0.08200
H723        H  0.27461688  0.58957557  0.13017109     0.07300
H724        H  0.11677917  0.61537745  0.11924618     0.02100
H725        H  0.15435858  0.66611964  0.11683818     0.02600
H726        H  0.14051455  0.64591625  0.13355008     0.06100
H727        H  0.23658511  0.71151766  0.08558084     0.05100
H728        H  0.24773216  0.67769135  0.09374179    -0.00700
H729        H  0.22376986  0.69903746  0.10298736     0.00800
H730        H  0.07700955  0.53971568  0.06850387     0.04500
H731        H  0.05259082  0.56382685  0.07575170     0.06400
H732        H  0.06254683  0.53201949  0.08577627     0.07300
C733        C  0.03668565  0.77604727  0.02908629    -0.22300
C734        C  0.07652280  0.78939811  0.03110067     0.09600
C735        C  0.10433840  0.82949226  0.02945170     0.10000
C736        C  0.09129646  0.85573482  0.02642137    -0.17300
C737        C  0.05117984  0.84250368  0.02472956    -0.27700
C738        C  0.02346679  0.80196218  0.02602515     0.18400
C739        C  0.08771046  0.76027488  0.03500235     0.12300
C740        C  0.14752578  0.84449024  0.03104006    -0.12000
H741        H  0.11243155  0.88674975  0.02545272     0.12600
C742        C  0.97966604  0.78476956  0.02492103    -0.22900
H743        H  0.01555097  0.74508887  0.03027238     0.08300
C744        C  0.08215472  0.74551049  0.04825935     0.04600
C745        C  0.08802266  0.71408152  0.05107981    -0.20100
C746        C  0.09839714  0.69646970  0.04087643    -0.12400
C747        C  0.10518681  0.71229767  0.02767526     0.13300
C748        C  0.09998368  0.74419431  0.02495239    -0.22800
C749        C  0.06944941  0.76255683  0.05935646    -0.05900
H750        H  0.08301835  0.70225368  0.06120932     0.14800
C751        C  0.11803558  0.69602285  0.01639499    -0.16100
H752        H  0.10405906  0.75576855  0.01480309     0.09200
H753        H  0.96523314  0.76749554  0.03411180     0.07000
H754        H  0.96833890  0.76485592  0.01609439     0.08200
H755        H  0.97063282  0.80688553  0.02393353     0.07300
H756        H  0.15696944  0.83025385  0.02351180     0.02100
H757        H  0.15357244  0.83772515  0.04132046     0.02600
H758        H  0.16527506  0.87669440  0.02950601     0.06100
H759        H  0.06698265  0.74795236  0.06917036     0.05100
H760        H  0.04037555  0.75891787  0.05691661    -0.00700
H761        H  0.09121049  0.79423367  0.06049446     0.00800
H762        H  0.09410740  0.66612003  0.01380702     0.04500
H763        H  0.14473311  0.69536794  0.01944464     0.06400
H764        H  0.12506572  0.71409227  0.00712176     0.07300
C765        C  0.91313457  0.11790634  0.99992445    -0.22300
C766        C  0.91136205  0.13993024  0.01054278     0.09600
C767        C  0.91388770  0.12941105  0.02393659     0.10000
C768        C  0.91952452  0.09748276  0.02635637    -0.17300
C769        C  0.92246037  0.07579805  0.01565500    -0.27700
C770        C  0.91900001  0.08636920  0.00220998     0.18400
C771        C  0.90982656  0.17545734  0.00695858     0.12300
C772        C  0.91057718  0.15180031  0.03559814    -0.12000
H773        H  0.92205742  0.08970406  0.03663124     0.12600
C774        C  0.92442127  0.06691869  0.99005017    -0.22900
H775        H  0.91146876  0.12659927  0.98968465     0.08300
C776        C  0.94465373  0.21167886  0.00507507     0.04600
C777        C  0.94257545  0.24319036  0.99954113    -0.20100
C778        C  0.90664589  0.23918849  0.99544176    -0.12400
C779        C  0.87166329  0.20285294  0.99744115     0.13300
C780        C  0.87376171  0.17146247  0.00321522    -0.22800
C781        C  0.98419783  0.21662680  0.00834931    -0.05900
H782        H  0.96945438  0.27083944  0.99798099     0.14800
C783        C  0.83206299  0.19699788  0.99374605    -0.16100
H784        H  0.84727681  0.14325232  0.00445446     0.09200
H785        H  0.92355632  0.08103585  0.98046957     0.07000
H786        H  0.90080084  0.03575611  0.98947931     0.08200
H787        H  0.95355559  0.06946150  0.99071173     0.07300
H788        H  0.88175766  0.15022220  0.03518728     0.02100
H789        H  0.93421524  0.18295945  0.03513686     0.02600
H790        H  0.91292227  0.13962638  0.04541826     0.06100
H791        H  0.00844057  0.24676790  0.00611816     0.05100
H792        H  0.98890809  0.19586260  0.00226888    -0.00700
H793        H  0.98586850  0.21082545  0.01919006     0.00800
H794        H  0.82995438  0.19953962  0.98268682     0.04500
H795        H  0.82751076  0.21922338  0.99891707     0.06400
H796        H  0.80794269  0.16754247  0.99676974     0.07300
C797        C  0.82862971  0.27852270  0.94054193    -0.22300
C798        C  0.81593939  0.30579570  0.94063840     0.09600
C799        C  0.82472713  0.33092336  0.95177132     0.10000
C800        C  0.84648133  0.32853906  0.96252919    -0.17300
C801        C  0.85989890  0.30169118  0.96244692    -0.27700
C802        C  0.85070953  0.27622042  0.95127929     0.18400
C803        C  0.79354308  0.30768539  0.92894629     0.12300
C804        C  0.81169141  0.36068937  0.95218328    -0.12000
H805        H  0.85339003  0.34812936  0.97103360     0.12600
C806        C  0.86546987  0.24790334  0.95026735    -0.22900
H807        H  0.82171354  0.25939805  0.93190164     0.08300
C808        C  0.81251318  0.33010458  0.91739768     0.04600
C809        C  0.78986916  0.33093212  0.90657975    -0.20100
C810        C  0.74872769  0.30921276  0.90699148    -0.12400
C811        C  0.72990029  0.28773049  0.91878241     0.13300
C812        C  0.75257254  0.28702975  0.92954886    -0.22800
C813        C  0.85657177  0.35273049  0.91647597    -0.05900
H814        H  0.80429043  0.34768152  0.89762369     0.14800
C815        C  0.68605691  0.26613622  0.92055599    -0.16100
H816        H  0.73816821  0.27040764  0.93854303     0.09200
H817        H  0.85732426  0.23203063  0.94049999     0.07000
H818        H  0.85254109  0.22568204  0.95839072     0.08200
H819        H  0.89794145  0.26399079  0.95109966     0.07300
H820        H  0.77921782  0.34559789  0.95166026     0.02100
H821        H  0.82429333  0.38104304  0.94350802     0.02600
H822        H  0.82134198  0.37831830  0.96158317     0.06100
H823        H  0.86672032  0.36872296  0.90676811     0.05100
H824        H  0.86800721  0.33231871  0.91727458    -0.00700
H825        H  0.86900346  0.37443725  0.92478375     0.00800
H826        H  0.67491133  0.23425826  0.92156994     0.04500
H827        H  0.67049292  0.27078049  0.91211554     0.06400
H828        H  0.67865793  0.27664825  0.92982954     0.07300
C829        C  0.01846646  0.42871242  0.00814623    -0.22300
C830        C  0.00420824  0.45462295  0.00851518     0.09600
C831        C  0.96877749  0.44491705  0.00200659     0.10000
C832        C  0.94741953  0.40854473  0.99562556    -0.17300
C833        C  0.96057269  0.38151733  0.99569136    -0.27700
C834        C  0.99713789  0.39215531  0.00179319     0.18400
C835        C  0.02563965  0.49085397  0.01645971     0.12300
C836        C  0.95316623  0.47263690  0.00206879    -0.12000
H837        H  0.91965077  0.40076475  0.99090839     0.12600
C838        C  0.01436745  0.36579966  0.00149795    -0.22900
H839        H  0.04602854  0.43688900  0.01311280     0.08300
C840        C  0.01925684  0.49073676  0.03040648     0.04600
C841        C  0.03925485  0.52592654  0.03755013    -0.20100
C842        C  0.06576583  0.56111249  0.03109531    -0.12400
C843        C  0.07294586  0.56091895  0.01714334     0.13300
C844        C  0.05218752  0.52573348  0.00995094    -0.22800
C845        C  0.99104534  0.45356577  0.03769821    -0.05900
H846        H  0.03379157  0.52605819  0.04823446     0.14800
C847        C  0.10338794  0.59641015  0.00963601    -0.16100
H848        H  0.05719156  0.52531829  0.99923557     0.09200
H849        H  0.99637256  0.33927238  0.00767838     0.07000
H850        H  0.04457229  0.38054785  0.00571043     0.08200
H851        H  0.01580115  0.35732069  0.99095274     0.07300
H852        H  0.97456173  0.50063829  0.99716335     0.02100
H853        H  0.94832159  0.47857514  0.01259657     0.02600
H854        H  0.92489146  0.46037853  0.99654889     0.06100
H855        H  0.98941255  0.45878139  0.04860338     0.05100
H856        H  0.00066794  0.43176388  0.03670180    -0.00700
H857        H  0.96122407  0.44124868  0.03332310     0.00800
H858        H  0.12404811  0.58930155  0.00460156     0.04500
H859        H  0.12118252  0.62176839  0.01628319     0.06400
H860        H  0.08888962  0.60493933  0.00184325     0.07300
C861        C  0.16038469  0.71617351  0.19022747    -0.22300
C862        C  0.14943868  0.71768031  0.17689210     0.09600
C863        C  0.16881642  0.71130337  0.16620895     0.10000
C864        C  0.19776641  0.70195466  0.16909627    -0.17300
C865        C  0.20770084  0.69844020  0.18245374    -0.27700
C866        C  0.18928433  0.70650412  0.19318395     0.18400
C867        C  0.11524610  0.72237167  0.17425042     0.12300
C868        C  0.15816550  0.71334347  0.15175939    -0.12000
H869        H  0.21170147  0.69592629  0.16080915     0.12600
C870        C  0.20003672  0.70542647  0.20769910    -0.22900
H871        H  0.14533013  0.72137241  0.19834584     0.08300
C872        C  0.07700304  0.68954689  0.17419608     0.04600
C873        C  0.04542463  0.69441666  0.17065751    -0.20100
C874        C  0.05118793  0.73135547  0.16714428    -0.12400
C875        C  0.08946048  0.76455889  0.16775600     0.13300
C876        C  0.12114605  0.75948393  0.17108598    -0.22800
C877        C  0.06969925  0.64923068  0.17755153    -0.05900
H878        H  0.01613907  0.66899999  0.17027067     0.14800
C879        C  0.09786572  0.80576654  0.16556144    -0.16100
H880        H  0.15062662  0.78464519  0.17129683     0.09200
H881        H  0.18473745  0.71533921  0.21459723     0.07000
H882        H  0.23208652  0.72507434  0.20914765     0.08200
H883        H  0.19150669  0.67509108  0.21065211     0.07300
H884        H  0.16248539  0.74280968  0.14962266     0.02100
H885        H  0.12701551  0.69085843  0.14989132     0.02600
H886        H  0.17672121  0.70826126  0.14464164     0.06100
H887        H  0.03805879  0.62675124  0.17695802     0.05100
H888        H  0.08001195  0.64898887  0.18794710    -0.00700
H889        H  0.08572308  0.64093638  0.17037044     0.00800
H890        H  0.11410998  0.82408955  0.17438646     0.04500
H891        H  0.07095563  0.80752727  0.16451435     0.06400
H892        H  0.11619492  0.81829063  0.15642914     0.07300
C893        C  0.98363605  0.81159768  0.08466049    -0.22300
C894        C  0.97495877  0.82281827  0.09694214     0.09600
C895        C  0.96560880  0.85279348  0.09727347     0.10000
C896        C  0.96556585  0.87130454  0.08523138    -0.17300
C897        C  0.97512706  0.86071456  0.07298537    -0.27700
C898        C  0.98370363  0.83013029  0.07261479     0.18400
C899        C  0.97716076  0.80368791  0.10941262     0.12300
C900        C  0.95626050  0.86554630  0.11033857    -0.12000
H901        H  0.95887401  0.89470293  0.08539426     0.12600
C902        C  0.99235174  0.81592297  0.05972580    -0.22900
H903        H  0.99055996  0.78835899  0.08449396     0.08300
C904        C  0.94441169  0.76948055  0.11436599     0.04600
C905        C  0.94800379  0.75288397  0.12637947    -0.20100
C906        C  0.98363545  0.76973555  0.13359317    -0.12400
C907        C  0.01649658  0.80419480  0.12849613     0.13300
C908        C  0.01275677  0.82055474  0.11642712    -0.22800
C909        C  0.90573160  0.75067501  0.10699469    -0.05900
H910        H  0.92271298  0.72647740  0.13013960     0.14800
C911        C  0.05508616  0.82501517  0.13587728    -0.16100
H912        H  0.03761430  0.84703121  0.11248567     0.09200
H913        H  0.97077500  0.78425040  0.05842848     0.07000
H914        H  0.02225204  0.82001880  0.06021868     0.08200
H915        H  0.99060793  0.83145068  0.05068745     0.07300
H916        H  0.98167517  0.87643501  0.11730710     0.02100
H917        H  0.93031715  0.84044476  0.11508827     0.02600
H918        H  0.94966496  0.88942858  0.10877751     0.06100
H919        H  0.88304301  0.72404036  0.11226763     0.05100
H920        H  0.90943270  0.74206050  0.09671572    -0.00700
H921        H  0.89498223  0.77163787  0.10620208     0.00800
H922        H  0.06828606  0.80611156  0.13635757     0.04500
H923        H  0.05048663  0.83276185  0.14617231     0.06400
H924        H  0.07650413  0.85259975  0.13074207     0.07300
C925        C  0.67727043  0.48536470  0.26544429    -0.22300
C926        C  0.65745215  0.44450777  0.26418528     0.09600
C927        C  0.63754710  0.42657936  0.25210865     0.10000
C928        C  0.63837569  0.45019136  0.24144577    -0.17300
C929        C  0.65848743  0.49104394  0.24267292    -0.27700
C930        C  0.67794143  0.50898263  0.25482860     0.18400
C931        C  0.65592516  0.42110310  0.27597777     0.12300
C932        C  0.61587635  0.38270775  0.25041672    -0.12000
H933        H  0.62352244  0.43679425  0.23206747     0.12600
C934        C  0.69846293  0.55260715  0.25712088    -0.22900
H935        H  0.69167140  0.49883920  0.27487747     0.08300
C936        C  0.68894036  0.41947479  0.28037869     0.04600
C937        C  0.68604199  0.39793210  0.29196926    -0.20100
C938        C  0.65091320  0.37807452  0.29934649    -0.12400
C939        C  0.61751982  0.37963870  0.29469425     0.13300
C940        C  0.62083349  0.40134316  0.28312164    -0.22800
C941        C  0.72710542  0.44018709  0.27279263    -0.05900
H942        H  0.71158348  0.39678407  0.29526704     0.14800
C943        C  0.57830508  0.35964836  0.30176086    -0.16100
H944        H  0.59590077  0.40338142  0.27963840     0.09200
H945        H  0.73005399  0.56399689  0.25913867     0.07000
H946        H  0.68541674  0.55880883  0.26598381     0.08200
H947        H  0.69590025  0.56883333  0.24845069     0.07300
H948        H  0.59148088  0.36874620  0.25775447     0.02100
H949        H  0.63629714  0.37158377  0.25208745     0.02600
H950        H  0.60314100  0.37380274  0.24015442     0.06100
H951        H  0.74969089  0.43499163  0.27742071     0.05100
H952        H  0.73870181  0.47224597  0.27277421    -0.00700
H953        H  0.72234956  0.42941241  0.26224779     0.00800
H954        H  0.55665593  0.36548785  0.29671508     0.04500
H955        H  0.58159032  0.37037116  0.31226285     0.06400
H956        H  0.56561448  0.32746179  0.30173147     0.07300
C957        C  0.53245492  0.53846612  0.21662072    -0.22300
C958        C  0.52652260  0.54085272  0.20282443     0.09600
C959        C  0.55236305  0.53943120  0.19342025     0.10000
C960        C  0.58413890  0.53624325  0.19806104    -0.17300
C961        C  0.59057228  0.53429902  0.21189292    -0.27700
C962        C  0.56411314  0.53509981  0.22132282     0.18400
C963        C  0.49468273  0.54769711  0.19852463     0.12300
C964        C  0.54638823  0.54133766  0.17850444    -0.12000
H965        H  0.60425158  0.53551789  0.19083910     0.12600
C966        C  0.56982876  0.53430905  0.23632973    -0.22900
H967        H  0.51258850  0.54007126  0.22373927     0.08300
C968        C  0.45508687  0.51745355  0.19842222     0.04600
C969        C  0.42600012  0.52623111  0.19483637    -0.20100
C970        C  0.43578926  0.56442420  0.19118798    -0.12400
C971        C  0.47569262  0.59464712  0.19125659     0.13300
C972        C  0.50456181  0.58580485  0.19493733    -0.22800
C973        C  0.44365979  0.47608098  0.20209749    -0.05900
H974        H  0.39552417  0.50332556  0.19501717     0.14800
C975        C  0.48804021  0.63668433  0.18816561    -0.16100
H976        H  0.53509125  0.60886733  0.19522734     0.09200
H977        H  0.56654733  0.50578156  0.23933433     0.07000
H978        H  0.54780285  0.53790138  0.24207644     0.08200
H979        H  0.59935787  0.55856060  0.23925413     0.07300
H980        H  0.54834600  0.56957338  0.17592847     0.02100
H981        H  0.51706606  0.51681571  0.17553576     0.02600
H982        H  0.56885094  0.53905947  0.17253889     0.06100
H983        H  0.41150439  0.45586530  0.20125664     0.05100
H984        H  0.45256159  0.47504826  0.21263597    -0.00700
H985        H  0.45842130  0.46548557  0.19523515     0.00800
H986        H  0.52007740  0.65659784  0.18955803     0.04500
H987        H  0.47273376  0.64672813  0.19500299     0.06400
H988        H  0.48102806  0.63941814  0.17753377     0.07300
C989        C  0.80003583  0.63314286  0.20640680    -0.22300
C990        C  0.80142965  0.62882957  0.19248631     0.09600
C991        C  0.76748730  0.60169775  0.18540379     0.10000
C992        C  0.73239839  0.57941862  0.19249290    -0.17300
C993        C  0.73114010  0.58296032  0.20651405    -0.27700
C994        C  0.76532110  0.61021435  0.21357260     0.18400
C995        C  0.83953743  0.65119477  0.18571190     0.12300
C996        C  0.76860323  0.59588325  0.17045497    -0.12000
H997        H  0.70612591  0.55841780  0.18714792     0.12600
C998        C  0.76532567  0.61576789  0.22858919    -0.22900
H999        H  0.82649835  0.65399377  0.21169815     0.08300
C1000       C  0.85259505  0.68875959  0.18035620     0.04600
C1001       C  0.88907039  0.70849346  0.17393815    -0.20100
C1002       C  0.91281364  0.69159841  0.17294032    -0.12400
C1003       C  0.89966416  0.65396297  0.17849121     0.13300
C1004       C  0.86307508  0.63427786  0.18482399    -0.22800
C1005       C  0.82801135  0.70782145  0.18140083    -0.05900
H1006       H  0.89916103  0.73730835  0.16969601     0.14800
C1007       C  0.92306285  0.63361521  0.17735947    -0.16100
H1008       H  0.85250509  0.60534015  0.18903962     0.09200
H1009       H  0.79394309  0.64009326  0.23222601     0.07000
H1010       H  0.75983890  0.58876754  0.23389553     0.08200
H1011       H  0.74234895  0.62278063  0.23129268     0.07300
H1012       H  0.78987092  0.58617441  0.16823206     0.02100
H1013       H  0.77769305  0.62381487  0.16508731     0.02600
H1014       H  0.73948535  0.57336859  0.16650232     0.06100
H1015       H  0.84264801  0.73731698  0.17666778     0.05100
H1016       H  0.82272103  0.71114174  0.19216165    -0.00700
H1017       H  0.79943546  0.68944127  0.17626191     0.00800
H1018       H  0.95077150  0.64990309  0.18316217     0.04500
H1019       H  0.92963520  0.63166870  0.16662021     0.06400
H1020       H  0.90685544  0.60336130  0.18147484     0.07300
C1021       C  0.33586910  0.77174465  0.62086068    -0.22300
C1022       C  0.31109871  0.74964657  0.61026175     0.09600
C1023       C  0.28723747  0.70869409  0.61154426     0.10000
C1024       C  0.28908981  0.69058177  0.62342372    -0.17300
C1025       C  0.31420467  0.71253255  0.63402576    -0.27700
C1026       C  0.33729321  0.75382169  0.63286766     0.18400
C1027       C  0.31122249  0.76990281  0.59776456     0.12300
C1028       C  0.25964712  0.68422870  0.60043360    -0.12000
H1029       H  0.27103168  0.65902769  0.62441540     0.12600
C1030       C  0.36228003  0.78015257  0.64417560    -0.22900
H1031       H  0.35378857  0.80329772  0.61981670     0.08300
C1032       C  0.29106458  0.79067692  0.59677732     0.04600
C1033       C  0.29228208  0.80938871  0.58462800    -0.20100
C1034       C  0.31312482  0.80768351  0.57345400    -0.12400
C1035       C  0.33278405  0.78616402  0.57448452     0.13300
C1036       C  0.33172227  0.76777779  0.58667398    -0.22800
C1037       C  0.26791776  0.79260643  0.60846898    -0.05900
H1038       H  0.27716681  0.82575276  0.58390537     0.14800
C1039       C  0.35387073  0.78120549  0.56275715    -0.16100
H1040       H  0.34680947  0.75139035  0.58758077     0.09200
H1041       H  0.35338231  0.80207329  0.64635173     0.07000
H1042       H  0.39355344  0.79583797  0.64110512     0.08200
H1043       H  0.35940649  0.76442161  0.65371429     0.07300
H1044       H  0.27647521  0.68673767  0.59119456     0.02100
H1045       H  0.23878271  0.69451051  0.59822379     0.02600
H1046       H  0.24239851  0.65277519  0.60325092     0.06100
H1047       H  0.25331071  0.80949141  0.60591315     0.05100
H1048       H  0.28767658  0.80707008  0.61718601    -0.00700
H1049       H  0.24493927  0.76252371  0.61140335     0.00800
H1050       H  0.36480574  0.76097445  0.56515936     0.04500
H1051       H  0.37967082  0.80987877  0.56010193     0.06400
H1052       H  0.33360624  0.76882548  0.55403037     0.07300
C1053       C  0.16026882  0.89892860  0.52274009    -0.22300
C1054       C  0.14813506  0.86286431  0.52898351     0.09600
C1055       C  0.10807871  0.83788367  0.53197764     0.10000
C1056       C  0.08121714  0.85014682  0.52890756    -0.17300
C1057       C  0.09349033  0.88690149  0.52296881    -0.27700
C1058       C  0.13363985  0.91130934  0.51966245     0.18400
C1059       C  0.17886466  0.85414767  0.53330099     0.12300
C1060       C  0.09370944  0.79846106  0.53843590    -0.12000
H1061       H  0.05055888  0.83124577  0.53142036     0.12600
C1062       C  0.14940048  0.95151893  0.51369814    -0.22900
H1063       H  0.19120478  0.91819021  0.52070421     0.08300
C1064       C  0.20164453  0.84764915  0.52389106     0.04600
C1065       C  0.23410945  0.84536944  0.52841431    -0.20100
C1066       C  0.24412080  0.84899274  0.54213949    -0.12400
C1067       C  0.22039589  0.85421070  0.55161136     0.13300
C1068       C  0.18830344  0.85704227  0.54702658    -0.22800
C1069       C  0.19167632  0.84303225  0.50909478    -0.05900
H1070       H  0.25191358  0.84088030  0.52117496     0.14800
C1071       C  0.22958024  0.85868734  0.56647517    -0.16100
H1072       H  0.17109423  0.86276948  0.55415225     0.09200
H1073       H  0.13665082  0.94928455  0.50353524     0.07000
H1074       H  0.18177569  0.96718413  0.51254216     0.08200
H1075       H  0.14216146  0.96934043  0.52041891     0.07300
H1076       H  0.10720640  0.80209818  0.54853862     0.02100
H1077       H  0.10161894  0.78056764  0.53202459     0.02600
H1078       H  0.06136194  0.78219503  0.53971323     0.06100
H1079       H  0.21167581  0.83670860  0.50321452     0.05100
H1080       H  0.19415653  0.87030606  0.50501659    -0.00700
H1081       H  0.16124682  0.81838079  0.50760132     0.00800
H1082       H  0.20954431  0.86533067  0.57219007     0.04500
H1083       H  0.26003579  0.88303733  0.56820048     0.06400
H1084       H  0.22602598  0.83100109  0.57058907     0.07300
C1085       C  0.66455564  0.15787812  0.41836306    -0.22300
C1086       C  0.63812913  0.15217347  0.42865793     0.09600
C1087       C  0.61167998  0.16590741  0.42701273     0.10000
C1088       C  0.61260502  0.18556429  0.41508292    -0.17300
C1089       C  0.63976053  0.19226301  0.40483244    -0.27700
C1090       C  0.66580683  0.17769963  0.40646315     0.18400
C1091       C  0.63902141  0.13183012  0.44109305     0.12300
C1092       C  0.58281294  0.16012838  0.43790137    -0.12000
H1093       H  0.59261145  0.19654327  0.41389019     0.12600
C1094       C  0.69417178  0.18164636  0.39559988    -0.22900
H1095       H  0.68440153  0.14676086  0.41969266     0.08300
C1096       C  0.61656371  0.09068954  0.44225259     0.04600
C1097       C  0.61851142  0.07271812  0.45420457    -0.20100
C1098       C  0.64337919  0.09485656  0.46483504    -0.12400
C1099       C  0.66661702  0.13597465  0.46352843     0.13300
C1100       C  0.66392582  0.15403670  0.45168257    -0.22800
C1101       C  0.59079158  0.06584325  0.43084813    -0.05900
H1102       H  0.60071739  0.04116066  0.45524374     0.14800
C1103       C  0.69339042  0.16087213  0.47472303    -0.16100
H1104       H  0.68138498  0.18560408  0.45063226     0.09200
H1105       H  0.67802493  0.16894860  0.38605008     0.07000
H1106       H  0.70994146  0.16599134  0.39826610     0.08200
H1107       H  0.71672374  0.21287474  0.39408683     0.07300
H1108       H  0.59880456  0.17469732  0.44730282     0.02100
H1109       H  0.56322250  0.12837974  0.43987123     0.02600
H1110       H  0.56428046  0.17270753  0.43502288     0.06100
H1111       H  0.57530280  0.03415960  0.43339920     0.05100
H1112       H  0.60891886  0.07040807  0.42176360    -0.00700
H1113       H  0.56843748  0.07405339  0.42848606     0.00800
H1114       H  0.70831030  0.19256622  0.47221875     0.04500
H1115       H  0.71632504  0.15309539  0.47653108     0.06400
H1116       H  0.67624874  0.15602471  0.48408704     0.07300
C1117       C  0.77372011  0.08010266  0.50646942    -0.22300
C1118       C  0.76929311  0.04265596  0.50685358     0.09600
C1119       C  0.73309132  0.00972664  0.50320906     0.10000
C1120       C  0.70205098  0.01498870  0.49922591    -0.17300
C1121       C  0.70648609  0.05245038  0.49856054    -0.27700
C1122       C  0.74269053  0.08548466  0.50237559     0.18400
C1123       C  0.80351006  0.03839920  0.51010859     0.12300
C1124       C  0.72751933  0.96912501  0.50324572    -0.12000
H1125       H  0.67431165  0.98971993  0.49630472     0.12600
C1126       C  0.74938604  0.12648463  0.50258522    -0.22900
H1127       H  0.80168212  0.10529455  0.50924776     0.08300
C1128       C  0.82913884  0.04072908  0.49989364     0.04600
C1129       C  0.85779553  0.03097518  0.50286232    -0.20100
C1130       C  0.86228805  0.01980931  0.51595508    -0.12400
C1131       C  0.83829031  0.02050017  0.52643461     0.13300
C1132       C  0.80880585  0.02924603  0.52330028    -0.22800
C1133       C  0.82592362  0.05325017  0.48582138    -0.05900
H1134       H  0.87627848  0.03140590  0.49475724     0.14800
C1135       C  0.84380277  0.01292747  0.54093995    -0.16100
H1136       H  0.78930682  0.02831641  0.53112237     0.09200
H1137       H  0.77320805  0.14516952  0.49545442     0.07000
H1138       H  0.75825585  0.13882325  0.51288587     0.08200
H1139       H  0.72291264  0.12776745  0.49982921     0.07300
H1140       H  0.73253371  0.96157359  0.51354920     0.02100
H1141       H  0.74861739  0.96788215  0.49620816     0.02600
H1142       H  0.69743990  0.94668261  0.50004177     0.06100
H1143       H  0.84803106  0.05322038  0.47896381     0.05100
H1144       H  0.83073174  0.08341622  0.48606229    -0.00700
H1145       H  0.79631881  0.03314373  0.48162945     0.00800
H1146       H  0.87471196  0.03290493  0.54405103     0.14100
H1147       H  0.83602425  0.98199387  0.54230090     0.06400
H1148       H  0.82475383  0.01814509  0.54778069     0.07300
C1149       C  0.49512746  0.96281869  0.50118731    -0.22300
C1150       C  0.49440038  0.96162202  0.51527082     0.09600
C1151       C  0.52971195  0.98206193  0.52260375     0.10000
C1152       C  0.56513563  0.00408741  0.51562529    -0.17300
C1153       C  0.56598941  0.00626473  0.50147571    -0.27700
C1154       C  0.53042396  0.98483479  0.49415348     0.18400
C1155       C  0.45619710  0.93787702  0.52205746     0.12300
C1156       C  0.52991286  0.98057975  0.53776410    -0.12000
H1157       H  0.59225121  0.02016625  0.52126792     0.12600
C1158       C  0.52930066  0.98376124  0.47896536    -0.22900
H1159       H  0.46778972  0.94640066  0.49568519     0.08300
C1160       C  0.43245317  0.95373576  0.52544129     0.04600
C1161       C  0.39606790  0.92969011  0.53164610    -0.20100
C1162       C  0.38279232  0.89006775  0.53437339    -0.12400
C1163       C  0.40597750  0.87389005  0.53034551     0.13300
C1164       C  0.44271459  0.89823726  0.52448701    -0.22800
C1165       C  0.44562445  0.99598513  0.52252145    -0.05900
H1166       H  0.37825289  0.94206142  0.53462419     0.14800
C1167       C  0.39227334  0.83087327  0.53136283    -0.16100
H1168       H  0.46063246  0.88599029  0.52147779     0.09200
H1169       H  0.53768969  0.01307902  0.47488018     0.07000
H1170       H  0.49948465  0.96288136  0.47507816     0.08200
H1171       H  0.54955893  0.97431984  0.47512319     0.07300
H1172       H  0.51759214  0.94981220  0.54116086     0.02100
H1173       H  0.51188281  0.99231762  0.54190321     0.02600
H1174       H  0.56003879  0.99818775  0.54193706     0.06100
H1175       H  0.42357020  0.00370792  0.52581083     0.05100
H1176       H  0.45022491  0.00152727  0.51152645    -0.00700
H1177       H  0.47353530  0.01537618  0.52789377     0.00800
H1178       H  0.39354658  0.81960404  0.52125773     0.04500
H1179       H  0.36160520  0.81311290  0.53483923     0.06400
H1180       H  0.41182254  0.82649709  0.53829187     0.07300
C1181       C  0.23503234  0.79163419  0.68459383    -0.22300
C1182       C  0.23635173  0.80052710  0.67084708     0.09600
C1183       C  0.24126641  0.77729938  0.66121785     0.10000
C1184       C  0.24585603  0.74626168  0.66556853    -0.17300
C1185       C  0.24624309  0.73805713  0.67934593    -0.27700
C1186       C  0.24013343  0.76068427  0.68900601     0.18400
C1187       C  0.23602130  0.83621206  0.66668692     0.12300
C1188       C  0.24227424  0.78558907  0.64633714    -0.12000
H1189       H  0.25082558  0.72926917  0.65811310     0.12600
C1190       C  0.23859033  0.75225961  0.70387308    -0.22900
H1191       H  0.23121208  0.80975589  0.69189106     0.08300
C1192       C  0.20096122  0.83714981  0.66552120     0.04600
C1193       C  0.20255353  0.87141593  0.66081677    -0.20100
C1194       C  0.23840358  0.90442582  0.65724956    -0.12400
C1195       C  0.27335155  0.90300784  0.65811994     0.13300
C1196       C  0.27174452  0.86911435  0.66306155    -0.22800
C1197       C  0.16206405  0.80200181  0.66913645    -0.05900
H1198       H  0.17587064  0.87271363  0.66012367     0.14800
C1199       C  0.31253629  0.93595477  0.65345575    -0.16100
H1200       H  0.29848969  0.86789995  0.66375586     0.09200
H1201       H  0.23088969  0.77113627  0.70982448     0.07000
H1202       H  0.26759466  0.75796743  0.70748144     0.08200
H1203       H  0.21605087  0.72123378  0.70586113     0.07300
H1204       H  0.26739404  0.81511980  0.64401306     0.02100
H1205       H  0.21458203  0.78421903  0.64327315     0.02600
H1206       H  0.24558463  0.76400273  0.64020123     0.06100
H1207       H  0.13750741  0.80759114  0.66752852     0.05100
H1208       H  0.16218148  0.79444712  0.67990423    -0.00700
H1209       H  0.15667605  0.77667327  0.66279126     0.00800
H1210       H  0.33312821  0.94747874  0.66212440     0.04500
H1211       H  0.31074982  0.96043949  0.64878355     0.06400
H1212       H  0.32469947  0.92474390  0.64575062     0.07300
C1213       C  0.13110885  0.95659199  0.58144244    -0.22300
C1214       C  0.13033392  0.97610629  0.59308052     0.09600
C1215       C  0.10825580  0.99508835  0.59320935     0.10000
C1216       C  0.08616056  0.99282881  0.58178660    -0.17300
C1217       C  0.08586123  0.97214537  0.57027463    -0.27700
C1218       C  0.10958767  0.95477798  0.56995065     0.18400
C1219       C  0.15267735  0.97588849  0.60503593     0.12300
C1220       C  0.10733048  0.01689086  0.60548755    -0.12000
H1221       H  0.06830074  0.00645127  0.58194726     0.12600
C1222       C  0.11408465  0.93533416  0.55757613    -0.22900
H1223       H  0.14888245  0.94286269  0.58130924     0.08300
C1224       C  0.13882453  0.94236507  0.61324838     0.04600
C1225       C  0.16133767  0.94316154  0.62431687    -0.20100
C1226       C  0.19724466  0.97685424  0.62746935    -0.12400
C1227       C  0.21106080  0.01057627  0.61917059     0.13300
C1228       C  0.18857727  0.00946572  0.60802170    -0.22800
C1229       C  0.10002750  0.90593698  0.61042633    -0.05900
H1230       H  0.15054006  0.91741189  0.63065184     0.14800
C1231       C  0.24988080  0.04742723  0.62163558    -0.16100
H1232       H  0.19903523  0.03489955  0.60154261     0.09200
H1233       H  0.10248961  0.90375451  0.55961985     0.07000
H1234       H  0.14563094  0.94924877  0.55495705     0.08200
H1235       H  0.09895126  0.93811685  0.54861730     0.07300
H1236       H  0.13729284  0.04141169  0.60776837     0.02100
H1237       H  0.09621681  0.99668435  0.61424664     0.02600
H1238       H  0.08798141  0.02937297  0.60397696     0.06100
H1239       H  0.09316596  0.88269121  0.61801786     0.05100
H1240       H  0.10063041  0.89406381  0.60037245    -0.00700
H1241       H  0.07623162  0.91303548  0.61063192     0.00800
H1242       H  0.25702775  0.06939365  0.61352362     0.04500
H1243       H  0.27373273  0.04041772  0.62200530     0.06400
H1244       H  0.24899826  0.06129600  0.63122422     0.07300
C1245       C  0.43043704  0.42336421  0.71142786    -0.22300
C1246       C  0.39777281  0.41443159  0.70338199     0.09600
C1247       C  0.37273468  0.37552789  0.69916635     0.10000
C1248       C  0.38126789  0.34647530  0.70294157    -0.17300
C1249       C  0.41384186  0.35497161  0.71113029    -0.27700
C1250       C  0.43862904  0.39419859  0.71552600     0.18400
C1251       C  0.38947508  0.44605182  0.69997357     0.12300
C1252       C  0.33637607  0.36443530  0.69099957    -0.12000
H1253       H  0.36167388  0.31664533  0.69966195     0.12600
C1254       C  0.47406102  0.40611517  0.72431938    -0.22900
H1255       H  0.44936613  0.45340521  0.71465556     0.08300
C1256       C  0.37470906  0.46102580  0.70973618     0.04600
C1257       C  0.36760398  0.49112859  0.70617205    -0.20100
C1258       C  0.37414987  0.50624378  0.69301887    -0.12400
C1259       C  0.38895481  0.49125472  0.68319370     0.13300
C1260       C  0.39639952  0.46125077  0.68682502    -0.22800
C1261       C  0.36525382  0.44446611  0.72381108    -0.05900
H1262       H  0.35573198  0.50223217  0.71364323     0.14800
C1263       C  0.39842929  0.50688507  0.66900387    -0.16100
H1264       H  0.40798366  0.44980812  0.67937787     0.09200
H1265       H  0.46489526  0.39164494  0.73430175     0.07000
H1266       H  0.49076082  0.43821775  0.72614778     0.08200
H1267       H  0.49411531  0.39809918  0.71936019     0.07300
H1268       H  0.34451127  0.38026694  0.68123781     0.02100
H1269       H  0.31705581  0.37219995  0.69663611     0.02600
H1270       H  0.31945336  0.33252229  0.68882906     0.06100
H1271       H  0.35267380  0.45874495  0.73001296     0.05100
H1272       H  0.39223563  0.44901965  0.72892079    -0.00700
H1273       H  0.34349531  0.41261568  0.72337838     0.00800
H1274       H  0.42958413  0.51676191  0.66679664     0.04500
H1275       H  0.39442088  0.53228992  0.66729994     0.06400
H1276       H  0.37950420  0.48334537  0.66179710     0.07300
C1277       C  0.51557200  0.31421827  0.75815292    -0.22300
C1278       C  0.49342279  0.28237733  0.76672589     0.09600
C1279       C  0.45492390  0.25373198  0.76311491     0.10000
C1280       C  0.43927682  0.25772491  0.75093386    -0.17300
C1281       C  0.46132752  0.28966962  0.74231577    -0.27700
C1282       C  0.50025811  0.31794627  0.74584887     0.18400
C1283       C  0.51157951  0.27952385  0.77935331     0.12300
C1284       C  0.43058490  0.21896941  0.77206969    -0.12000
H1285       H  0.40960718  0.23580683  0.74810995     0.12600
C1286       C  0.52713236  0.35111988  0.73668116    -0.22900
H1287       H  0.54539552  0.33579917  0.76094676     0.08300
C1288       C  0.53559828  0.26267270  0.77961295     0.04600
C1289       C  0.55455318  0.26324427  0.79164065    -0.20100
C1290       C  0.54983407  0.28024767  0.80332677    -0.12400
C1291       C  0.52407170  0.29524754  0.80322690     0.13300
C1292       C  0.50560918  0.29510582  0.79114709    -0.22800
C1293       C  0.54149274  0.24455145  0.76717389    -0.05900
H1294       H  0.57398901  0.25139684  0.79184046     0.14800
C1295       C  0.51465097  0.31070123  0.81568090    -0.16100
H1296       H  0.48648289  0.30731382  0.79090424     0.09200
H1297       H  0.55402994  0.34967578  0.73477887     0.07000
H1298       H  0.53558125  0.37952098  0.74157488     0.08200
H1299       H  0.51386225  0.35015157  0.72675512     0.07300
H1300       H  0.42655621  0.22914162  0.78202458     0.02100
H1301       H  0.44553779  0.20187024  0.77350834     0.02600
H1302       H  0.40114186  0.19918263  0.76767750     0.06100
H1303       H  0.56106550  0.23255645  0.76915504     0.05100
H1304       H  0.55490039  0.26693157  0.75910445    -0.00700
H1305       H  0.51282374  0.22021138  0.76359574     0.00800
H1306       H  0.52446982  0.34219465  0.81430659     0.04500
H1307       H  0.52849836  0.30748161  0.82493369     0.06400
H1308       H  0.48246805  0.29426432  0.81735392     0.07300
C1309       C  0.36746010  0.18428754  0.68148918    -0.22300
C1310       C  0.34425529  0.14971634  0.68874616     0.09600
C1311       C  0.34279918  0.15075910  0.70289410     0.10000
C1312       C  0.36438053  0.18671901  0.70950714    -0.17300
C1313       C  0.38739161  0.22156276  0.70228982    -0.27700
C1314       C  0.38950703  0.22030474  0.68808752     0.18400
C1315       C  0.32195686  0.11263434  0.68129109     0.12300
C1316       C  0.31799725  0.11408597  0.71096935    -0.12000
H1317       H  0.36279297  0.18773820  0.72038898     0.12600
C1318       C  0.41568094  0.25565391  0.67960396    -0.22900
H1319       H  0.36879163  0.18300492  0.67060448     0.08300
C1320       C  0.28675791  0.10294812  0.67461019     0.04600
C1321       C  0.26732713  0.06805598  0.66725472    -0.20100
C1322       C  0.28202106  0.04233202  0.66655001    -0.12400
C1323       C  0.31704724  0.05182828  0.67359818     0.13300
C1324       C  0.33663624  0.08709059  0.68081029    -0.22800
C1325       C  0.26955933  0.12926115  0.67536420    -0.05900
H1326       H  0.24030307  0.06076588  0.66207145     0.14800
C1327       C  0.33495280  0.02607580  0.67326172    -0.16100
H1328       H  0.36377275  0.09504869  0.68604836     0.09200
H1329       H  0.39745100  0.26204291  0.67270780     0.07000
H1330       H  0.43538659  0.24946321  0.67348834     0.08200
H1331       H  0.43466369  0.28219984  0.68561133     0.07300
H1332       H  0.32820608  0.09294597  0.70936407     0.02100
H1333       H  0.28688219  0.10048114  0.70776228     0.02600
H1334       H  0.31964694  0.12032525  0.72193104     0.06100
H1335       H  0.24143635  0.11691327  0.66974302     0.05100
H1336       H  0.29028078  0.15833844  0.67097400    -0.00700
H1337       H  0.26389071  0.13304521  0.68604290     0.00800
H1338       H  0.36333500  0.03944632  0.67876608     0.04500
H1339       H  0.34060096  0.02147522  0.66267908     0.06400
H1340       H  0.31509885  0.99752242  0.67815013     0.07300
C1341       C  0.73462612  0.05634415  0.36182624    -0.22300
C1342       C  0.73074320  0.08030392  0.37128911     0.09600
C1343       C  0.72771375  0.07076084  0.38510230     0.10000
C1344       C  0.72921032  0.03755443  0.38914857    -0.17300
C1345       C  0.73156492  0.01252227  0.37966492    -0.27700
C1346       C  0.73454185  0.02223897  0.36578132     0.18400
C1347       C  0.72391014  0.11155932  0.36631168     0.12300
C1348       C  0.72056497  0.09417920  0.39549030    -0.12000
H1349       H  0.72648655  0.02999971  0.39974695     0.12600
C1350       C  0.73779391  0.99716534  0.35503650    -0.22900
H1351       H  0.73615715  0.06362905  0.35122499     0.08300
C1352       C  0.75348448  0.15142160  0.36621846     0.04600
C1353       C  0.74391449  0.17961001  0.36219250    -0.20100
C1354       C  0.70582003  0.16858255  0.35785289    -0.12400
C1355       C  0.67679256  0.12829689  0.35733868     0.13300
C1356       C  0.68627326  0.10041043  0.36164857    -0.22800
C1357       C  0.79509233  0.16409090  0.37009765    -0.05900
H1358       H  0.76619875  0.21040938  0.36247595     0.14800
C1359       C  0.63522013  0.11438617  0.35296800    -0.16100
H1360       H  0.66396423  0.06959839  0.36163489     0.09200
H1361       H  0.76280886  0.99278461  0.35731987     0.07000
H1362       H  0.74278275  0.01093588  0.34492258     0.08200
H1363       H  0.71023352  0.96841258  0.35443633     0.07300
H1364       H  0.69286945  0.09370336  0.39312089     0.02100
H1365       H  0.74506053  0.12494551  0.39558468     0.02600
H1366       H  0.71794161  0.08206309  0.40578586     0.06100
H1367       H  0.81456975  0.19635321  0.36928280     0.05100
H1368       H  0.80653709  0.14999141  0.36329505    -0.00700
H1369       H  0.79648038  0.15545881  0.38061650     0.00800
H1370       H  0.63458912  0.12179552  0.34221737     0.04500
H1371       H  0.62269366  0.12840951  0.35930493     0.06400
H1372       H  0.61613512  0.08212787  0.35399063     0.07300
C1373       C  0.85641683  0.92414100  0.44569613    -0.22300
C1374       C  0.83237275  0.94044233  0.44730554     0.09600
C1375       C  0.82975200  0.95486992  0.45997354     0.10000
C1376       C  0.85220680  0.95379740  0.47071305    -0.17300
C1377       C  0.87675262  0.93809134  0.46912106    -0.27700
C1378       C  0.87879488  0.92277163  0.45648154     0.18400
C1379       C  0.80983246  0.94194616  0.43564727     0.12300
C1380       C  0.80338570  0.97152500  0.46213576    -0.12000
H1381       H  0.85074916  0.96543979  0.48043449     0.12600
C1382       C  0.90510888  0.90618954  0.45386761    -0.22900
H1383       H  0.85809727  0.91290428  0.43592355     0.08300
C1384       C  0.82618958  0.97362733  0.42653055     0.04600
C1385       C  0.80352829  0.97375773  0.41564702    -0.20100
C1386       C  0.76502206  0.94274680  0.41364329    -0.12400
C1387       C  0.74821319  0.91169014  0.42313199     0.13300
C1388       C  0.77099406  0.91170338  0.43399539    -0.22800
C1389       C  0.86758585  0.00709653  0.42826866    -0.05900
H1390       H  0.81635754  0.99761618  0.40844375     0.14800
C1391       C  0.70604193  0.87911193  0.42217202    -0.16100
H1392       H  0.75852039  0.88800982  0.44127113     0.09200
H1393       H  0.92591569  0.92300623  0.44565383     0.07000
H1394       H  0.88706493  0.87509239  0.45071101     0.08200
H1395       H  0.92266363  0.90745978  0.46277218     0.07300
H1396       H  0.77265240  0.94914662  0.45965130     0.02100
H1397       H  0.81281548  0.99761005  0.45561741     0.02600
H1398       H  0.80407331  0.98032745  0.47277337     0.06100
H1399       H  0.87578095  0.02959224  0.42027571     0.05100
H1400       H  0.88828552  0.99596088  0.42781573    -0.00700
H1401       H  0.87068616  0.02140415  0.43816518     0.00800
H1402       H  0.70161083  0.86073990  0.41318140     0.04500
H1403       H  0.68653768  0.89166890  0.42158614     0.06400
H1404       H  0.69717139  0.85950571  0.43109928     0.07300
C1405       C  0.53069821  0.48967295  0.33059994    -0.22300
C1406       C  0.55793568  0.49651955  0.34076874     0.09600
C1407       C  0.57850789  0.53346093  0.34696464     0.10000
C1408       C  0.57153096  0.56315948  0.34272653    -0.17300
C1409       C  0.54483357  0.55710810  0.33223663    -0.27700
C1410       C  0.52376460  0.51932929  0.32618129     0.18400
C1411       C  0.56748202  0.46579133  0.34366056     0.12300
C1412       C  0.60844786  0.54173766  0.35783443    -0.12000
H1413       H  0.58790749  0.59158592  0.34750830     0.12600
C1414       C  0.49400086  0.50934014  0.31508763    -0.22900
H1415       H  0.51546750  0.46104742  0.32587064     0.08300
C1416       C  0.54740042  0.43669774  0.35351389     0.04600
C1417       C  0.55730600  0.40760012  0.35543670    -0.20100
C1418       C  0.58635200  0.40702520  0.34755843    -0.12400
C1419       C  0.60641536  0.43635144  0.33768553     0.13300
C1420       C  0.59670654  0.46541244  0.33591665    -0.22800
C1421       C  0.51547009  0.43627060  0.36184650    -0.05900
H1422       H  0.54215473  0.38506088  0.36298582     0.14800
C1423       C  0.63841626  0.43840113  0.32889106    -0.16100
H1424       H  0.61190276  0.48792187  0.32835035     0.09200
H1425       H  0.47967201  0.47799985  0.31213616     0.07000
H1426       H  0.50850808  0.52686424  0.30594790     0.08200
H1427       H  0.47056413  0.51489121  0.31851537     0.07300
H1428       H  0.63214465  0.53740595  0.35381777     0.02100
H1429       H  0.59431372  0.52160363  0.36646557     0.02600
H1430       H  0.62201793  0.57227644  0.36161676     0.06100
H1431       H  0.50265814  0.41137200  0.36905450     0.05100
H1432       H  0.49164344  0.43348004  0.35515057    -0.00700
H1433       H  0.52744303  0.46387654  0.36768806     0.00800
H1434       H  0.63020105  0.43734806  0.31813407     0.04500
H1435       H  0.64418198  0.41427238  0.33072499     0.06400
H1436       H  0.66607959  0.46646325  0.33069832     0.07300
C1437       C  0.45781525  0.63825420  0.28673782    -0.22300
C1438       C  0.46515672  0.62281124  0.27519484     0.09600
C1439       C  0.48853399  0.60532209  0.27606835     0.10000
C1440       C  0.50471061  0.60430113  0.28855311    -0.17300
C1441       C  0.49823146  0.62069962  0.30008709    -0.27700
C1442       C  0.47382848  0.63724938  0.29922033     0.18400
C1443       C  0.44682950  0.62432493  0.26240988     0.12300
C1444       C  0.49607794  0.58750856  0.26387980    -0.12000
H1445       H  0.52320875  0.59144705  0.28924880     0.12600
C1446       C  0.46336632  0.65271983  0.31142183    -0.22900
H1447       H  0.43932165  0.65110326  0.28593974     0.08300
C1448       C  0.40639709  0.59933948  0.26015789     0.04600
C1449       C  0.38980343  0.60291611  0.24817579    -0.20100
C1450       C  0.41280325  0.63017390  0.23821015    -0.12400
C1451       C  0.45376054  0.65401144  0.24023049     0.13300
C1452       C  0.47004382  0.65147118  0.25251004    -0.22800
C1453       C  0.38089668  0.56843287  0.27027415    -0.05900
H1454       H  0.35852458  0.58416139  0.24655967     0.14800
C1455       C  0.48150631  0.68068126  0.22954017    -0.16100
H1456       H  0.50125875  0.67016015  0.25426269     0.09200
H1457       H  0.44112227  0.66107201  0.30899417     0.07000
H1458       H  0.48962916  0.67929920  0.31533961     0.08200
H1459       H  0.45098453  0.62984278  0.31937276     0.07300
H1460       H  0.51178436  0.61034539  0.25609862     0.02100
H1461       H  0.46779721  0.56414006  0.25966011     0.02600
H1462       H  0.51430463  0.57432155  0.26640346     0.06100
H1463       H  0.35014429  0.55054248  0.26667959     0.05100
H1464       H  0.38052969  0.58236143  0.27991256    -0.00700
H1465       H  0.39246946  0.54844115  0.27209269     0.00800
H1466       H  0.49584157  0.71154486  0.23301887     0.04500
H1467       H  0.46718052  0.67832315  0.21971866     0.06400
H1468       H  0.50446844  0.67294443  0.22772653     0.07300
C1469       C  0.59089349  0.73012369  0.36020524    -0.22300
C1470       C  0.61577292  0.76438024  0.35305604     0.09600
C1471       C  0.61988378  0.76292155  0.33902197     0.10000
C1472       C  0.59890233  0.72689138  0.33239782    -0.17300
C1473       C  0.57432763  0.69235421  0.33953343    -0.27700
C1474       C  0.56971317  0.69399774  0.35360239     0.18400
C1475       C  0.63831896  0.80136096  0.36053792     0.12300
C1476       C  0.64670872  0.79928361  0.33109904    -0.12000
H1477       H  0.60226374  0.72552444  0.32161112     0.12600
C1478       C  0.54189741  0.65889981  0.36190678    -0.22900
H1479       H  0.58780838  0.73168339  0.37100025     0.08300
C1480       C  0.62310406  0.82615447  0.36299650     0.04600
C1481       C  0.64618647  0.86137763  0.36995688    -0.20100
C1482       C  0.68362491  0.87166429  0.37476192    -0.12400
C1483       C  0.69868435  0.84652527  0.37231233     0.13300
C1484       C  0.67579498  0.81171274  0.36514367    -0.22800
C1485       C  0.58252705  0.81524506  0.35834893    -0.05900
H1486       H  0.63468347  0.88060939  0.37189310     0.14800
C1487       C  0.73919242  0.85664307  0.37682782    -0.16100
H1488       H  0.68709016  0.79234885  0.36310774     0.09200
H1489       H  0.52113556  0.66531039  0.36723460     0.07000
H1490       H  0.55873306  0.65268851  0.36949661     0.08200
H1491       H  0.52404159  0.63215039  0.35584764     0.07300
H1492       H  0.67724052  0.81203832  0.33485574     0.02100
H1493       H  0.63728849  0.82119976  0.33222881     0.02600
H1494       H  0.64644342  0.79289825  0.32019720     0.06100
H1495       H  0.57513143  0.83790648  0.36113185     0.05100
H1496       H  0.56061594  0.78713749  0.36307167    -0.00700
H1497       H  0.58042559  0.81189973  0.34723041     0.00800
H1498       H  0.74085035  0.85698160  0.38798571     0.04500
H1499       H  0.76122616  0.88577738  0.37278971     0.06400
H1500       H  0.74692976  0.83488008  0.37320449     0.07300
C1501       C  0.83421774  0.92347529  0.12068090    -0.22300
C1502       C  0.84574546  0.95657940  0.11255701     0.09600
C1503       C  0.83890840  0.98646136  0.11692744     0.10000
C1504       C  0.82155470  0.98306638  0.12953038    -0.17300
C1505       C  0.80991412  0.94997361  0.13769900    -0.27700
C1506       C  0.81614080  0.91969175  0.13320923     0.18400
C1507       C  0.86491009  0.95943914  0.09947589     0.12300
C1508       C  0.84965358  0.02172639  0.10823232    -0.12000
H1509       H  0.81658348  0.00617243  0.13297189     0.12600
C1510       C  0.80503434  0.88412144  0.14177567    -0.22900
H1511       H  0.83956845  0.90065130  0.11721085     0.08300
C1512       C  0.90607557  0.97798696  0.09836970     0.04600
C1513       C  0.92287370  0.98006364  0.08573531    -0.20100
C1514       C  0.89936974  0.96375367  0.07424480    -0.12400
C1515       C  0.85812804  0.94600269  0.07531842     0.13300
C1516       C  0.84143870  0.94387106  0.08796548    -0.22800
C1517       C  0.93214853  0.99500443  0.11055002    -0.05900
H1518       H  0.95442321  0.99344311  0.08488265     0.14800
C1519       C  0.83096505  0.92997698  0.06332791    -0.16100
H1520       H  0.80986893  0.93021379  0.08884739     0.09200
H1521       H  0.82005206  0.89330235  0.15169454     0.07000
H1522       H  0.81356588  0.86422204  0.13697213     0.08200
H1523       H  0.77283474  0.86734984  0.14331523     0.07300
H1524       H  0.83347544  0.01217812  0.09852662     0.02100
H1525       H  0.88161522  0.03780798  0.10619020     0.02600
H1526       H  0.84217006  0.04227114  0.11314806     0.06100
H1527       H  0.96363388  0.00824571  0.10792701     0.05100
H1528       H  0.92478825  0.97159507  0.11811444    -0.00700
H1529       H  0.92790331  0.01817056  0.11510106     0.00800
H1530       H  0.81052805  0.89806236  0.06466247     0.04500
H1531       H  0.84666527  0.93461261  0.05367633     0.06400
H1532       H  0.81359421  0.94483824  0.06249070     0.07300
C1533       C  0.63329104  0.86323735  0.17777893    -0.22300
C1534       C  0.62284076  0.82475072  0.17460955     0.09600
C1535       C  0.65076851  0.81704297  0.16884571     0.10000
C1536       C  0.68883350  0.84832160  0.16636050    -0.17300
C1537       C  0.69957936  0.88708669  0.16957712    -0.27700
C1538       C  0.67122131  0.89458264  0.17535720     0.18400
C1539       C  0.58170161  0.79348274  0.17678446     0.12300
C1540       C  0.64035787  0.77584978  0.16538283    -0.12000
H1541       H  0.71033659  0.84247456  0.16190594     0.12600
C1542       C  0.67972990  0.93548045  0.17843212    -0.22900
H1543       H  0.61130741  0.86875348  0.18201488     0.08300
C1544       C  0.56740087  0.77822011  0.18972042     0.04600
C1545       C  0.52742462  0.75066532  0.19137240    -0.20100
C1546       C  0.50151868  0.73805675  0.18036611    -0.12400
C1547       C  0.51605851  0.75360540  0.16736633     0.13300
C1548       C  0.55601276  0.78105596  0.16577944    -0.22800
C1549       C  0.59436962  0.79101237  0.20174813    -0.05900
H1550       H  0.51633500  0.73883305  0.20129453     0.14800
C1551       C  0.48954737  0.74311807  0.15522532    -0.16100
H1552       H  0.56725864  0.79357948  0.15593645     0.09200
H1553       H  0.70158496  0.94847351  0.18666745     0.07000
H1554       H  0.65308271  0.93567508  0.18180475     0.08200
H1555       H  0.69082138  0.95403467  0.16927076     0.07300
H1556       H  0.61636160  0.76337926  0.15780765     0.02100
H1557       H  0.63057517  0.75739071  0.17459389     0.02600
H1558       H  0.66577164  0.77485671  0.16112767     0.06100
H1559       H  0.57856659  0.77574524  0.21108205     0.05100
H1560       H  0.60751856  0.82299625  0.20334795    -0.00700
H1561       H  0.61810743  0.78434203  0.20003018     0.00800
H1562       H  0.46575021  0.74943370  0.15732940     0.04500
H1563       H  0.47684835  0.71169306  0.15270243     0.06400
H1564       H  0.50556297  0.76026349  0.14617627     0.07300
C1565       C  0.79212905  0.24342930  0.26092039    -0.22300
C1566       C  0.81027249  0.27310191  0.27055302     0.09600
C1567       C  0.85038895  0.30121535  0.26925942     0.10000
C1568       C  0.87139365  0.29949588  0.25815881    -0.17300
C1569       C  0.85346586  0.26976186  0.24839603    -0.27700
C1570       C  0.81305922  0.24109866  0.24989813     0.18400
C1571       C  0.78621757  0.27468709  0.28170086     0.12300
C1572       C  0.87103640  0.33273732  0.27969532    -0.12000
H1573       H  0.90225024  0.32119673  0.25725633     0.12600
C1574       C  0.79110979  0.20845525  0.23987260    -0.22900
H1575       H  0.76123325  0.22202822  0.26203723     0.08300
C1576       C  0.76634931  0.29571916  0.28034290     0.04600
C1577       C  0.74329744  0.29595312  0.29102242    -0.20100
C1578       C  0.73934947  0.27535167  0.30300051    -0.12400
C1579       C  0.76002790  0.25491905  0.30446897     0.13300
C1580       C  0.78281115  0.25448639  0.29370626    -0.22800
C1581       C  0.76937578  0.31775765  0.26758542    -0.05900
H1582       H  0.72801011  0.31211067  0.28999312     0.14800
C1583       C  0.76030202  0.23477455  0.31736076    -0.16100
H1584       H  0.79852495  0.23875115  0.29475438     0.09200
H1585       H  0.75933034  0.19094017  0.24222147     0.07000
H1586       H  0.80251975  0.18797854  0.24007553     0.08200
H1587       H  0.79403633  0.22080402  0.22960525     0.07300
H1588       H  0.86887781  0.31895549  0.28964172     0.02100
H1589       H  0.85719559  0.35104723  0.28033014     0.02600
H1590       H  0.90256228  0.35218467  0.27729011     0.06100
H1591       H  0.75202626  0.33267466  0.26818158     0.05100
H1592       H  0.75819371  0.29712834  0.25894707    -0.00700
H1593       H  0.80042488  0.34036463  0.26571076     0.00800
H1594       H  0.74762456  0.20296916  0.31546488     0.04500
H1595       H  0.74369081  0.23834983  0.32563127     0.06400
H1596       H  0.79099376  0.24724161  0.32093632     0.07300
C1597       C  0.03603744  0.37855050  0.21150369    -0.22300
C1598       C  0.03077642  0.40987886  0.20801570     0.09600
C1599       C  0.99368732  0.40628259  0.20960676     0.10000
C1600       C  0.96247853  0.37113314  0.21470519    -0.17300
C1601       C  0.96750383  0.33939268  0.21801275    -0.27700
C1602       C  0.00490724  0.34331350  0.21646523     0.18400
C1603       C  0.06534754  0.44650388  0.20322747     0.12300
C1604       C  0.98711735  0.43939972  0.20585072    -0.12000
H1605       H  0.93384504  0.36812986  0.21587896     0.12600
C1606       C  0.01260564  0.31101744  0.22038285    -0.22900
H1607       H  0.06483402  0.38187086  0.21038986     0.08300
C1608       C  0.09129826  0.47485453  0.21243967     0.04600
C1609       C  0.12661262  0.50634237  0.20775328    -0.20100
C1610       C  0.13731120  0.50990381  0.19406273    -0.12400
C1611       C  0.11025026  0.48216795  0.18473427     0.13300
C1612       C  0.07451594  0.45089028  0.18947345    -0.22800
C1613       C  0.08244587  0.47103257  0.22731265    -0.05900
H1614       H  0.14691911  0.52713974  0.21503837     0.14800
C1615       C  0.11851306  0.48502504  0.16983702    -0.16100
H1616       H  0.05421287  0.42885628  0.18249271     0.09200
H1617       H  0.04412539  0.32031892  0.21945740     0.07000
H1618       H  0.99597014  0.28548020  0.21365179     0.08200
H1619       H  0.00379492  0.30229164  0.23101034     0.07300
H1620       H  0.99363232  0.44644637  0.19499982     0.02100
H1621       H  0.00664702  0.46577516  0.21191042     0.02600
H1622       H  0.95634389  0.43173366  0.20767114     0.06100
H1623       H  0.10599995  0.49570726  0.23314399     0.05100
H1624       H  0.07961818  0.44339626  0.23120099    -0.00700
H1625       H  0.05462242  0.47073637  0.22910297     0.00800
H1626       H  0.14300827  0.47975034  0.16778237     0.04500
H1627       H  0.12593362  0.51443406  0.16607578     0.06400
H1628       H  0.09270182  0.46281829  0.16405316     0.07300
C1629       C  0.82540110  0.05324694  0.20044236    -0.22300
C1630       C  0.84418143  0.08889036  0.19346595     0.09600
C1631       C  0.84899048  0.08918264  0.17941981     0.10000
C1632       C  0.83336760  0.05354906  0.17252296    -0.17300
C1633       C  0.81282305  0.01750565  0.17932948    -0.27700
C1634       C  0.80957572  0.01738761  0.19356755     0.18400
C1635       C  0.85613632  0.12553977  0.20089020     0.12300
C1636       C  0.87007582  0.12714131  0.17169673    -0.12000
H1637       H  0.83620068  0.05395486  0.16166146     0.12600
C1638       C  0.79036725  0.97998430  0.20165538    -0.22900
H1639       H  0.82227251  0.05356173  0.21127896     0.08300
C1640       C  0.83039050  0.14020003  0.20210680     0.04600
C1641       C  0.84310566  0.17572529  0.20883337    -0.20100
C1642       C  0.88082518  0.19667984  0.21445254    -0.12400
C1643       C  0.90614822  0.18123229  0.21362467     0.13300
C1644       C  0.89361194  0.14601704  0.20665486    -0.22800
C1645       C  0.78949469  0.11824856  0.19633136    -0.05900
H1646       H  0.82359671  0.18738387  0.20964385     0.14800
C1647       C  0.94564964  0.19996447  0.22043810    -0.16100
H1648       H  0.91297702  0.13418733  0.20584931     0.09200
H1649       H  0.75855031  0.96282648  0.19945095     0.07000
H1650       H  0.79358265  0.98588234  0.21265936     0.08200
H1651       H  0.80413550  0.96228193  0.19925321     0.07300
H1652       H  0.90061538  0.14488592  0.17548270     0.02100
H1653       H  0.85484655  0.14398433  0.17299761     0.02600
H1654       H  0.87124539  0.12211171  0.16074921     0.06100
H1655       H  0.77320223  0.13382614  0.19819771     0.05100
H1656       H  0.77292792  0.08880391  0.20104179    -0.00700
H1657       H  0.79073259  0.11483071  0.18528361     0.00800
H1658       H  0.94682983  0.17840540  0.22731203     0.04500
H1659       H  0.95184089  0.22573389  0.22661205     0.06400
H1660       H  0.96897191  0.20910836  0.21273758     0.07300
C1661       C  0.97112189  0.38282330  0.34710155    -0.22300
C1662       C  0.94215574  0.37400886  0.33737646     0.09600
C1663       C  0.95010017  0.37156168  0.32369093     0.10000
C1664       C  0.98689754  0.37731404  0.32004426    -0.17300
C1665       C  0.01568897  0.38502395  0.32981584    -0.27700
C1666       C  0.00783687  0.38829554  0.34352553     0.18400
C1667       C  0.90328221  0.36642141  0.34180402     0.12300
C1668       C  0.91956928  0.36238917  0.31299285    -0.12000
H1669       H  0.99291540  0.37494691  0.30955227     0.12600
C1670       C  0.03820136  0.39859459  0.35441728    -0.22900
H1671       H  0.96470377  0.38494573  0.35756843     0.08300
C1672       C  0.87431896  0.32897245  0.34626240     0.04600
C1673       C  0.83711878  0.32245203  0.34964737    -0.20100
C1674       C  0.82826369  0.35256992  0.34871587    -0.12400
C1675       C  0.85805823  0.39064484  0.34492202     0.13300
C1676       C  0.89525002  0.39704494  0.34145119    -0.22800
C1677       C  0.88247885  0.29575500  0.34719640    -0.05900
H1678       H  0.81438278  0.29326693  0.35257459     0.14800
C1679       C  0.85124657  0.42476119  0.34487503    -0.16100
H1680       H  0.91809456  0.42592871  0.33830547     0.09200
H1681       H  0.04459539  0.37454216  0.35572493     0.07000
H1682       H  0.02795783  0.40307839  0.36429334     0.08200
H1683       H  0.06549363  0.42615311  0.35175981     0.07300
H1684       H  0.91118841  0.38525025  0.31292980     0.02100
H1685       H  0.89318338  0.33344472  0.31504798     0.02600
H1686       H  0.93063729  0.36143733  0.30282220     0.06100
H1687       H  0.85646688  0.26828671  0.35076540     0.05100
H1688       H  0.90689086  0.30348976  0.35439065    -0.00700
H1689       H  0.89073223  0.29007323  0.33713739     0.00800
H1690       H  0.87850462  0.45266040  0.34248338     0.04500
H1691       H  0.84110398  0.42776777  0.35498071     0.06400
H1692       H  0.82906487  0.42040593  0.33715974     0.07300
C1693       C  0.12889828  0.46315240  0.27539437    -0.22300
C1694       C  0.16844992  0.47441254  0.27420375     0.09600
C1695       C  0.18756210  0.46702250  0.28477417     0.10000
C1696       C  0.16628202  0.44753907  0.29629091    -0.17300
C1697       C  0.12617836  0.43528141  0.29757394    -0.27700
C1698       C  0.10736543  0.44378138  0.28695434     0.18400
C1699       C  0.18964604  0.49472677  0.26186878     0.12300
C1700       C  0.23041991  0.47967804  0.28387009    -0.12000
H1701       H  0.18134352  0.44195058  0.30435626     0.12600
C1702       C  0.06471873  0.43216029  0.28741692    -0.22900
H1703       H  0.11484391  0.46950534  0.26717015     0.08300
C1704       C  0.19088051  0.47383998  0.25057648     0.04600
C1705       C  0.21202831  0.49464338  0.23917163    -0.20100
C1706       C  0.23116790  0.53568220  0.23881495    -0.12400
C1707       C  0.22986192  0.55654508  0.25017220     0.13300
C1708       C  0.20916354  0.53567417  0.26160798    -0.22800
C1709       C  0.16970096  0.42972889  0.25057420    -0.05900
H1710       H  0.21297772  0.47885705  0.23040564     0.14800
C1711       C  0.25108644  0.60075362  0.25044864    -0.16100
H1712       H  0.20811794  0.55128120  0.27041011     0.09200
H1713       H  0.05515437  0.44005010  0.27797879     0.07000
H1714       H  0.05969890  0.44764526  0.29578428     0.08200
H1715       H  0.04617136  0.39997097  0.28874278     0.07300
H1716       H  0.24816499  0.51198249  0.28267764     0.02100
H1717       H  0.23543287  0.46550654  0.27507788     0.02600
H1718       H  0.24083977  0.47152517  0.29304288     0.06100
H1719       H  0.17363120  0.41804476  0.24091406     0.05100
H1720       H  0.13783889  0.41784174  0.25208564    -0.00700
H1721       H  0.18109406  0.41923903  0.25882835     0.00800
H1722       H  0.23811151  0.61177027  0.24294558     0.04500
H1723       H  0.28263572  0.61286865  0.24817873     0.06400
H1724       H  0.24897917  0.61200615  0.26046235     0.07300
C1725       C  0.09877940  0.11102022  0.45548802    -0.22300
C1726       C  0.10670735  0.09214931  0.44511846     0.09600
C1727       C  0.09334524  0.05177710  0.44606084     0.10000
C1728       C  0.07214789  0.03099522  0.45745829    -0.17300
C1729       C  0.06395421  0.04973919  0.46786946    -0.27700
C1730       C  0.07755364  0.09035268  0.46690005     0.18400
C1731       C  0.12996791  0.11568773  0.43351281     0.12300
C1732       C  0.10152661  0.03076469  0.43505884    -0.12000
H1733       H  0.06185951  0.99993914  0.45824793     0.12600
C1734       C  0.07133467  0.11245237  0.47805712    -0.22900
H1735       H  0.10960542  0.14217536  0.45466699     0.08300
C1736       C  0.11233939  0.12375161  0.42260097     0.04600
C1737       C  0.13590409  0.14744847  0.41204329    -0.20100
C1738       C  0.17680871  0.16330163  0.41212283    -0.12400
C1739       C  0.19434076  0.15498772  0.42320004     0.13300
C1740       C  0.17053932  0.13125443  0.43372865    -0.22800
C1741       C  0.06866821  0.10727626  0.42212711    -0.05900
H1742       H  0.12213840  0.15339029  0.40363167     0.14800
C1743       C  0.23801331  0.17192699  0.42440625    -0.16100
H1744       H  0.18362581  0.12501701  0.44228809     0.09200
H1745       H  0.03961133  0.10176291  0.47924547     0.07000
H1746       H  0.08617541  0.14436011  0.47591040     0.08200
H1747       H  0.08342098  0.10849022  0.48766124     0.07300
H1748       H  0.13366235  0.04388923  0.43384184     0.02100
H1749       H  0.08871015  0.03338390  0.42542084     0.02600
H1750       H  0.08870442  0.99911899  0.43735563     0.06100
H1751       H  0.05955308  0.11620043  0.41281951     0.05100
H1752       H  0.05944611  0.11795242  0.43091185    -0.00700
H1753       H  0.05324137  0.07477823  0.42240253     0.00800
H1754       H  0.24623639  0.16420183  0.43416106     0.04500
H1755       H  0.25317960  0.20435630  0.42382387     0.06400
H1756       H  0.24854910  0.16024631  0.41632417     0.07300
C1757       C  0.40174622  0.18953230  0.36865411    -0.22300
C1758       C  0.39436963  0.22024614  0.36675700     0.09600
C1759       C  0.42261714  0.25514797  0.36047922     0.10000
C1760       C  0.45795102  0.25863267  0.35621432    -0.17300
C1761       C  0.46634853  0.22857815  0.35853848    -0.27700
C1762       C  0.43765475  0.19338174  0.36480948     0.18400
C1763       C  0.35740360  0.21598703  0.37182397     0.12300
C1764       C  0.41593425  0.28915827  0.35867478    -0.12000
H1765       H  0.48002968  0.28592280  0.35170461     0.12600
C1766       C  0.44446592  0.15983079  0.36757537    -0.22900
H1767       H  0.37969252  0.16289083  0.37351940     0.08300
C1768       C  0.32409788  0.20200539  0.36347528     0.04600
C1769       C  0.29068537  0.20148076  0.36839050    -0.20100
C1770       C  0.28985945  0.21420849  0.38149297    -0.12400
C1771       C  0.32325101  0.22803389  0.38989417     0.13300
C1772       C  0.35655038  0.22832758  0.38496776    -0.22800
C1773       C  0.32392350  0.18768363  0.34941855    -0.05900
H1774       H  0.26495625  0.19086060  0.36201700     0.14800
C1775       C  0.32560105  0.24445181  0.40377789    -0.16100
H1776       H  0.38251155  0.23944931  0.39125786     0.09200
H1777       H  0.41753054  0.13353368  0.37130774     0.07000
H1778       H  0.45361394  0.15161115  0.35821292     0.08200
H1779       H  0.46740257  0.16818700  0.37541041     0.07300
H1780       H  0.41176955  0.29910977  0.36865644     0.02100
H1781       H  0.38943596  0.28013282  0.35239868     0.02600
H1782       H  0.44117450  0.31440991  0.35366737     0.06100
H1783       H  0.29543960  0.17766122  0.34425276     0.05100
H1784       H  0.32920545  0.16269175  0.34984172    -0.00700
H1785       H  0.34730495  0.21159685  0.34333286     0.00800
H1786       H  0.32939069  0.22597949  0.41136996     0.04500
H1787       H  0.29937569  0.24618818  0.40643573     0.06400
H1788       H  0.35120936  0.27468603  0.40433394     0.07300
C1789       C  0.16093884  0.29240084  0.37264659    -0.22300
C1790       C  0.16595327  0.29403944  0.35866854     0.09600
C1791       C  0.18389896  0.27499782  0.35260978     0.10000
C1792       C  0.19666114  0.25465520  0.36075809    -0.17300
C1793       C  0.19120162  0.25233527  0.37479890    -0.27700
C1794       C  0.17299048  0.27148178  0.38082474     0.18400
C1795       C  0.15044164  0.31450308  0.35058296     0.12300
C1796       C  0.18899949  0.27570328  0.33756378    -0.12000
H1797       H  0.21045319  0.23994409  0.35609972     0.12600
C1798       C  0.16691301  0.27094010  0.39582201    -0.22900
H1799       H  0.14695220  0.30716150  0.37713047     0.08300
C1800       C  0.11032942  0.29592804  0.34724555     0.04600
C1801       C  0.09623818  0.31689836  0.34015922    -0.20100
C1802       C  0.12129333  0.35610368  0.33645239    -0.12400
C1803       C  0.16149899  0.37500864  0.34006965     0.13300
C1804       C  0.17567054  0.35359669  0.34689415    -0.22800
C1805       C  0.08247722  0.25395474  0.35114915    -0.05900
H1806       H  0.06548156  0.30250398  0.33740670     0.14800
C1807       C  0.18984676  0.41796440  0.33762945    -0.16100
H1808       H  0.20634374  0.36783609  0.34976274     0.09200
H1809       H  0.14598084  0.24066543  0.39922217     0.07000
H1810       H  0.15450655  0.28954405  0.39873087     0.08200
H1811       H  0.19535513  0.28221956  0.40114829     0.07300
H1812       H  0.20749464  0.30640908  0.33407122     0.02100
H1813       H  0.15992784  0.26244363  0.33253270     0.02600
H1814       H  0.20332057  0.25900052  0.33446258     0.06100
H1815       H  0.05215773  0.24379200  0.34759520     0.05100
H1816       H  0.08172208  0.25091908  0.36227829    -0.00700
H1817       H  0.09227420  0.23470362  0.34664449     0.00800
H1818       H  0.20386499  0.43232904  0.34731157     0.04500
H1819       H  0.17577270  0.43389985  0.33355655     0.06400
H1820       H  0.21298929  0.42134098  0.33053537     0.07300
C1821       C  0.75475464  0.91174693  0.03138585    -0.22300
C1822       C  0.72667634  0.87254446  0.03384962     0.09600
C1823       C  0.73630794  0.84304434  0.03226376     0.10000
C1824       C  0.77453802  0.85364793  0.02849906    -0.17300
C1825       C  0.80276699  0.89293036  0.02602828    -0.27700
C1826       C  0.79281023  0.92242338  0.02745745     0.18400
C1827       C  0.68707771  0.86334174  0.03776890     0.12300
C1828       C  0.70639473  0.80061781  0.03469695    -0.12000
H1829       H  0.78255135  0.83130614  0.02755354     0.12600
C1830       C  0.82246193  0.96526839  0.02541033    -0.22900
H1831       H  0.74678359  0.93404963  0.03261682     0.08300
C1832       C  0.67832878  0.86791494  0.05114897     0.04600
C1833       C  0.64124050  0.86235773  0.05408171    -0.20100
C1834       C  0.61321424  0.85311557  0.04386861    -0.12400
C1835       C  0.62153291  0.84672777  0.03057131     0.13300
C1836       C  0.65861838  0.85231302  0.02768736    -0.22800
C1837       C  0.70843496  0.87961221  0.06220685    -0.05900
H1838       H  0.63478862  0.86713434  0.06427066     0.14800
C1839       C  0.59206641  0.83338859  0.01923799    -0.16100
H1840       H  0.66560508  0.84849748  0.01745353     0.09200
H1841       H  0.80987115  0.98418548  0.02757973     0.07000
H1842       H  0.83259726  0.97059856  0.01480157     0.08200
H1843       H  0.84791031  0.97431514  0.03224218     0.07300
H1844       H  0.68130125  0.79119151  0.02766657     0.02100
H1845       H  0.69563957  0.79666657  0.04522143     0.02600
H1846       H  0.71890598  0.78136334  0.03309489     0.06100
H1847       H  0.69661745  0.88160071  0.07211872     0.05100
H1848       H  0.73433847  0.90868610  0.05991878    -0.00700
H1849       H  0.71785023  0.85760100  0.06304172     0.00800
H1850       H  0.60243113  0.85655735  0.01139961     0.04500
H1851       H  0.56247438  0.82619144  0.02256629     0.06400
H1852       H  0.58897444  0.80636964  0.01466910     0.07300
C1853       C  0.43831994  0.72612530  0.11275607    -0.22300
C1854       C  0.44904576  0.76550392  0.11189925     0.09600
C1855       C  0.43908204  0.78305209  0.12227077     0.10000
C1856       C  0.41764878  0.76024928  0.13331472    -0.17300
C1857       C  0.40677471  0.72059526  0.13425923    -0.27700
C1858       C  0.41768666  0.70348136  0.12387258     0.18400
C1859       C  0.46969505  0.78715259  0.09972999     0.12300
C1860       C  0.45140818  0.82578425  0.12170387    -0.12000
H1861       H  0.40992615  0.77359589  0.14134476     0.12600
C1862       C  0.40602816  0.66097643  0.12404672    -0.22900
H1863       H  0.44613562  0.71310401  0.10463247     0.08300
C1864       C  0.51031945  0.80291192  0.09828701     0.04600
C1865       C  0.52807085  0.82038679  0.08605588    -0.20100
C1866       C  0.50601217  0.82233187  0.07525602    -0.12400
C1867       C  0.46507851  0.80662975  0.07683647     0.13300
C1868       C  0.44751200  0.78914271  0.08909936    -0.22800
C1869       C  0.53473959  0.80100914  0.10962836    -0.05900
H1870       H  0.55938862  0.83259631  0.08493464     0.14800
C1871       C  0.43928593  0.80672159  0.06562402    -0.16100
H1872       H  0.41614971  0.77634955  0.09037801     0.09200
H1873       H  0.41319839  0.65162794  0.11445253     0.07000
H1874       H  0.37395536  0.64346736  0.12555052     0.08200
H1875       H  0.42151754  0.65520164  0.13227042     0.07300
H1876       H  0.43857690  0.83156853  0.11264617     0.02100
H1877       H  0.48386826  0.84385573  0.12119811     0.02600
H1878       H  0.44152081  0.83493795  0.13072476     0.06100
H1879       H  0.56619503  0.81515744  0.10685823     0.05100
H1880       H  0.52431133  0.76997997  0.11224686    -0.00700
H1881       H  0.53227497  0.81624847  0.11861884     0.00800
H1882       H  0.44285547  0.79265813  0.05650059     0.04500
H1883       H  0.44691804  0.83720994  0.06331953     0.06400
H1884       H  0.40778431  0.79034205  0.06842671     0.07300
C1885       C  0.48893915  0.09765276  0.94210040    -0.22300
C1886       C  0.48946726  0.13265145  0.93961204     0.09600
C1887       C  0.46904680  0.14448029  0.94814960     0.10000
C1888       C  0.45011182  0.12182783  0.95954423    -0.17300
C1889       C  0.45086824  0.08741792  0.96248463    -0.27700
C1890       C  0.46970292  0.07461083  0.95336602     0.18400
C1891       C  0.51269025  0.15682359  0.92815278     0.12300
C1892       C  0.46739653  0.18098464  0.94522379    -0.12000
H1893       H  0.43542710  0.13159140  0.96633539     0.12600
C1894       C  0.46894373  0.03635462  0.95506776    -0.22900
H1895       H  0.50418062  0.08864325  0.93524039     0.08300
C1896       C  0.55251853  0.18571601  0.92976294     0.04600
C1897       C  0.57413585  0.20653633  0.91845895    -0.20100
C1898       C  0.55681694  0.19873589  0.90566663    -0.12400
C1899       C  0.51684375  0.16981318  0.90406190     0.13300
C1900       C  0.49520362  0.14921015  0.91538972    -0.22800
C1901       C  0.57217165  0.19433528  0.94337079    -0.05900
H1902       H  0.60443402  0.22930208  0.91962776     0.14800
C1903       C  0.49635516  0.15939419  0.89056505    -0.16100
H1904       H  0.46464970  0.12669617  0.91424482     0.09200
H1905       H  0.48220741  0.02992527  0.94631856     0.07000
H1906       H  0.43815678  0.01199580  0.95592369     0.08200
H1907       H  0.48603171  0.03737121  0.96409224     0.07300
H1908       H  0.45351605  0.17823783  0.93523225     0.02100
H1909       H  0.49743854  0.20693145  0.94513447     0.02600
H1910       H  0.45001891  0.18596212  0.95289824     0.06100
H1911       H  0.60345485  0.21783510  0.94280319     0.05100
H1912       H  0.57090464  0.16755628  0.94742656    -0.00700
H1913       H  0.55709940  0.20401109  0.95044748     0.00800
H1914       H  0.48393277  0.12765678  0.88859619     0.04500
H1915       H  0.51612484  0.17553586  0.88207945     0.06400
H1916       H  0.47209562  0.16583053  0.89062688     0.07300
C1917       C  0.31008737  0.07683575  0.00283548    -0.22300
C1918       C  0.28019757  0.04108613  0.00790553     0.09600
C1919       C  0.28531506  0.00833560  0.00827651     0.10000
C1920       C  0.32011474  0.01190718  0.00331921    -0.17300
C1921       C  0.34965988  0.04729089  0.99776001    -0.27700
C1922       C  0.34483056  0.08040943  0.99772064     0.18400
C1923       C  0.24163032  0.03680239  0.01088540     0.12300
C1924       C  0.25364766  0.96941585  0.01364517    -0.12000
H1925       H  0.32377583  0.98655045  0.00343473     0.12600
C1926       C  0.37617442  0.11965350  0.99249286    -0.22900
H1927       H  0.30561222  0.10167760  0.00249216     0.08300
C1928       C  0.23137245  0.04361319  0.02377174     0.04600
C1929       C  0.19280633  0.03540361  0.02607551    -0.20100
C1930       C  0.16485987  0.02145491  0.01564381    -0.12400
C1931       C  0.17595861  0.01592701  0.00262433     0.13300
C1932       C  0.21410815  0.02362489  0.00046279    -0.22800
C1933       C  0.26102427  0.05920719  0.03501619    -0.05900
H1934       H  0.18442957  0.03981148  0.03600914     0.14800
C1935       C  0.14732776  0.99992810  0.99106444    -0.16100
H1936       H  0.22242998  0.01851715  0.99060989     0.09200
H1937       H  0.36856472  0.14273664  0.99420376     0.07000
H1938       H  0.37973820  0.11798142  0.98148808     0.08200
H1939       H  0.40437151  0.12872693  0.99772131     0.07300
H1940       H  0.22647669  0.95870803  0.00757833     0.02100
H1941       H  0.24734377  0.97270942  0.02429289     0.02600
H1942       H  0.26243705  0.94686191  0.01325014     0.06100
H1943       H  0.24832493  0.06303785  0.04444892     0.05100
H1944       H  0.28622948  0.08812617  0.03209548    -0.00700
H1945       H  0.27169445  0.03860154  0.03706853     0.00800
H1946       H  0.13794757  0.02104631  0.98819112     0.04500
H1947       H  0.12156305  0.97153164  0.99405309     0.06400
H1948       H  0.16038696  0.99476107  0.98197365     0.07300
C1949       C  0.46412119  0.95517861  0.00109873    -0.22300
C1950       C  0.48001453  0.96719645  0.01400422     0.09600
C1951       C  0.48031363  0.99944967  0.02013454     0.10000
C1952       C  0.46382084  0.01862901  0.01324443    -0.17300
C1953       C  0.44746668  0.00630994  0.00037682    -0.27700
C1954       C  0.44746625  0.97411418  0.99422016     0.18400
C1955       C  0.49406868  0.94403105  0.02120434     0.12300
C1956       C  0.49758759  0.01321093  0.03396640    -0.12000
H1957       H  0.46387120  0.04345569  0.01786117     0.12600
C1958       C  0.42879793  0.95785552  0.98071384    -0.22900
H1959       H  0.46376771  0.93013954  0.99652358     0.08300
C1960       C  0.46751252  0.90851082  0.02755744     0.04600
C1961       C  0.48194984  0.88743303  0.03435182    -0.20100
C1962       C  0.52234990  0.90118308  0.03504624    -0.12400
C1963       C  0.54899949  0.93693831  0.02863427     0.13300
C1964       C  0.53436012  0.95782513  0.02171745    -0.22800
C1965       C  0.42401799  0.89325707  0.02738395    -0.05900
H1966       H  0.46149029  0.86005391  0.03920707     0.14800
C1967       C  0.59276774  0.95415939  0.02946536    -0.16100
H1968       H  0.55437971  0.98528565  0.01680318     0.09200
H1969       H  0.40649882  0.92631366  0.98179453     0.07000
H1970       H  0.45154720  0.96085656  0.97350009     0.08200
H1971       H  0.41365364  0.97249439  0.97641992     0.07300
H1972       H  0.52913968  0.02229468  0.03390239     0.02100
H1973       H  0.48198226  0.98911903  0.04135581     0.02600
H1974       H  0.49509428  0.03861915  0.03731452     0.06100
H1975       H  0.40750818  0.86540112  0.03309186     0.05100
H1976       H  0.41300491  0.88770257  0.01685450    -0.00700
H1977       H  0.41796705  0.91514546  0.03202897     0.00800
H1978       H  0.60125842  0.93483628  0.02423156     0.04500
H1979       H  0.60214706  0.95771140  0.04017787     0.06400
H1980       H  0.60889475  0.98341742  0.02459057     0.07300
C1981       C  0.42367911  0.63058309  0.61272604    -0.22300
C1982       C  0.43931536  0.60579930  0.61328149     0.09600
C1983       C  0.43188597  0.58139408  0.62458794     0.10000
C1984       C  0.40960702  0.58302394  0.63527236    -0.17300
C1985       C  0.39442046  0.60832161  0.63484663    -0.27700
C1986       C  0.40063854  0.63163472  0.62322982     0.18400
C1987       C  0.46206957  0.60489943  0.60162037     0.12300
C1988       C  0.44729091  0.55356979  0.62532903    -0.12000
H1989       H  0.40465625  0.56501823  0.64411849     0.12600
C1990       C  0.38217491  0.65660707  0.62124208    -0.22900
H1991       H  0.42876915  0.64860218  0.60386300     0.08300
C1992       C  0.44309847  0.58389780  0.58984853     0.04600
C1993       C  0.46566258  0.58449899  0.57890110    -0.20100
C1994       C  0.50682450  0.60597475  0.57936589    -0.12400
C1995       C  0.52586171  0.62685280  0.59125384     0.13300
C1996       C  0.50312495  0.62597902  0.60224868    -0.22800
C1997       C  0.39901635  0.56058566  0.58889403    -0.05900
H1998       H  0.45102049  0.56834204  0.56985136     0.14800
C1999       C  0.56989452  0.64895982  0.59262829    -0.16100
H2000       H  0.51736011  0.64189423  0.61138085     0.09200
H2001       H  0.36523568  0.64820924  0.61166773     0.07000
H2002       H  0.40543609  0.68793736  0.62064718     0.08200
H2003       H  0.36141712  0.65305618  0.62932418     0.07300
H2004       H  0.47980079  0.57024585  0.62489366     0.02100
H2005       H  0.43565159  0.53279087  0.61673599     0.02600
H2006       H  0.43842525  0.53628460  0.63481474     0.06100
H2007       H  0.38893637  0.54531791  0.57905759     0.05100
H2008       H  0.38690994  0.58033295  0.58999470    -0.00700
H2009       H  0.38710413  0.53815944  0.59699503     0.00800
H2010       H  0.58306174  0.67378868  0.58541971     0.04500
H2011       H  0.58137076  0.62899226  0.59066331     0.06400
H2012       H  0.57942166  0.66130622  0.60290253     0.07300
C2013       C  0.68691930  0.71212937  0.54712352    -0.22300
C2014       C  0.68414044  0.73698870  0.53764820     0.09600
C2015       C  0.64695210  0.72816518  0.53278664     0.10000
C2016       C  0.61323592  0.69473796  0.53764603    -0.17300
C2017       C  0.61614840  0.67018876  0.54720477    -0.27700
C2018       C  0.65328636  0.67877129  0.55195668     0.18400
C2019       C  0.72085085  0.77209013  0.53311828     0.12300
C2020       C  0.64288804  0.75428634  0.52266487    -0.12000
H2021       H  0.58453141  0.68771854  0.53399981     0.12600
C2022       C  0.65731536  0.65264935  0.56210177    -0.22900
H2023       H  0.71559154  0.71897233  0.55075216     0.08300
C2024       C  0.74182056  0.80455944  0.54166879     0.04600
C2025       C  0.77910445  0.83468698  0.53781067    -0.20100
C2026       C  0.79607168  0.83370087  0.52543630    -0.12400
C2027       C  0.77318697  0.80238662  0.51636814     0.13300
C2028       C  0.73618638  0.77179152  0.52046101    -0.22800
C2029       C  0.72473760  0.80741689  0.55487345    -0.05900
H2030       H  0.79540833  0.85863728  0.54477623     0.14800
C2031       C  0.78675382  0.80072146  0.50233583    -0.16100
H2032       H  0.71938963  0.74694581  0.51386552     0.09200
H2033       H  0.64128759  0.65120079  0.57144421     0.07000
H2034       H  0.68846522  0.66366593  0.56479501     0.08200
H2035       H  0.64489924  0.62269443  0.55789089     0.07300
H2036       H  0.65837384  0.75536754  0.51323264     0.02100
H2037       H  0.65575866  0.78434238  0.52683094     0.02600
H2038       H  0.61169021  0.74350964  0.52011757     0.06100
H2039       H  0.74479690  0.83497969  0.56030995     0.05100
H2040       H  0.71900463  0.78247211  0.56149380    -0.00700
H2041       H  0.69672593  0.80676202  0.55298064     0.00800
H2042       H  0.76370127  0.77567275  0.49649219     0.04500
H2043       H  0.81263608  0.79694950  0.50271957     0.06400
H2044       H  0.79409486  0.82799885  0.49679836     0.07300
C2045       C  0.21751177  0.13889158  0.51355391    -0.22300
C2046       C  0.24099947  0.12542704  0.50795625     0.09600
C2047       C  0.22520635  0.08503011  0.50582270     0.10000
C2048       C  0.18586904  0.05896442  0.50912641    -0.17300
C2049       C  0.16190785  0.07207044  0.51478232    -0.27700
C2050       C  0.17811848  0.11285902  0.51693177     0.18400
C2051       C  0.28148985  0.15452690  0.50382550     0.12300
C2052       C  0.24982901  0.06948771  0.50001548    -0.12000
H2053       H  0.17365606  0.02814462  0.50709132     0.12600
C2054       C  0.15377591  0.12958455  0.52202704    -0.22900
H2055       H  0.22992255  0.17012856  0.51498755     0.08300
C2056       C  0.28955793  0.17060584  0.49072650     0.04600
C2057       C  0.32779539  0.20005798  0.48749428    -0.20100
C2058       C  0.35787484  0.21447394  0.49715083    -0.12400
C2059       C  0.35014744  0.19719767  0.51011728     0.13300
C2060       C  0.31190209  0.16748398  0.51330504    -0.22800
C2061       C  0.25750183  0.15783450  0.48033273    -0.05900
H2062       H  0.33374783  0.21343410  0.47759029     0.14800
C2063       C  0.38150338  0.20887245  0.52071571    -0.16100
H2064       H  0.30563168  0.15466233  0.52330105     0.09200
H2065       H  0.17068905  0.16212147  0.52226370     0.07000
H2066       H  0.14378243  0.11930252  0.53244807     0.08200
H2067       H  0.12804421  0.12046922  0.51531607     0.07300
H2068       H  0.27535625  0.07750651  0.50670411     0.02100
H2069       H  0.26058461  0.08216396  0.48987633     0.02600
H2070       H  0.23293904  0.03707860  0.49901852     0.06100
H2071       H  0.26880766  0.17369201  0.47065065     0.05100
H2072       H  0.23458265  0.16376939  0.48405957    -0.00700
H2073       H  0.24404334  0.12602889  0.47831522     0.00800
H2074       H  0.37442148  0.22117965  0.52958180     0.04500
H2075       H  0.41108656  0.23070578  0.51703895     0.06400
H2076       H  0.38272531  0.18263491  0.52395600     0.07300
C2077       C  0.49563808  0.26733199  0.44928365    -0.22300
C2078       C  0.50228554  0.29786021  0.44053360     0.09600
C2079       C  0.49073475  0.32484984  0.44424936     0.10000
C2080       C  0.47271763  0.32069792  0.45677028    -0.17300
C2081       C  0.46601040  0.29012555  0.46560424    -0.27700
C2082       C  0.47819120  0.26339530  0.46188644     0.18400
C2083       C  0.52276507  0.30162074  0.42774141     0.12300
C2084       C  0.49758152  0.35797671  0.43502019    -0.12000
H2085       H  0.46346135  0.34119557  0.45963353     0.12600
C2086       C  0.47519704  0.23164907  0.47109918    -0.22900
H2087       H  0.50516724  0.24705228  0.44639385     0.08300
C2088       C  0.56404111  0.32100488  0.42719782     0.04600
C2089       C  0.58225274  0.32152037  0.41505930    -0.20100
C2090       C  0.55999326  0.30272110  0.40355953    -0.12400
C2091       C  0.51864787  0.28485437  0.40396291     0.13300
C2092       C  0.50051248  0.28419694  0.41613269    -0.22800
C2093       C  0.58872395  0.34041172  0.43949522    -0.05900
H2094       H  0.61391829  0.33532011  0.41467431     0.14800
C2095       C  0.49293261  0.26702890  0.39174320    -0.16100
H2096       H  0.46880865  0.26985525  0.41659753     0.09200
H2097       H  0.50467299  0.23503289  0.47237168     0.07000
H2098       H  0.45522077  0.20252787  0.46656934     0.08200
H2099       H  0.46450892  0.23252277  0.48129976     0.07300
H2100       H  0.48188026  0.34599752  0.42534449     0.02100
H2101       H  0.52942175  0.37683463  0.43300748     0.02600
H2102       H  0.48686515  0.37652527  0.43949179     0.06100
H2103       H  0.62053790  0.35434643  0.43730060     0.05100
H2104       H  0.58148437  0.31833183  0.44756276    -0.00700
H2105       H  0.58292929  0.36345348  0.44318542     0.00800
H2106       H  0.47337695  0.23504532  0.39328493     0.04500
H2107       H  0.51000446  0.27181343  0.38241739     0.06400
H2108       H  0.47460248  0.28062794  0.39015774     0.07300
C2109       C  0.53032957  0.48036228  0.53262046    -0.22300
C2110       C  0.49115702  0.45976153  0.52839758     0.09600
C2111       C  0.46573774  0.47365238  0.53176727     0.10000
C2112       C  0.48051131  0.50877107  0.53901095    -0.17300
C2113       C  0.52015044  0.53026740  0.54281944    -0.27700
C2114       C  0.54519999  0.51548494  0.53983904     0.18400
C2115       C  0.47748320  0.42356724  0.52047406     0.12300
C2116       C  0.42324997  0.45157814  0.52759892    -0.12000
H2117       H  0.46128130  0.51993619  0.54146753     0.12600
C2118       C  0.58718982  0.53585845  0.54461299    -0.22900
H2119       H  0.54934406  0.46893320  0.53017655     0.08300
C2120       C  0.48195235  0.42472228  0.50638505     0.04600
C2121       C  0.46912824  0.38962276  0.49932451    -0.20100
C2122       C  0.45212619  0.35332659  0.50604771    -0.12400
C2123       C  0.44824372  0.35252470  0.52027883     0.13300
C2124       C  0.46090652  0.38773179  0.52726725    -0.22800
C2125       C  0.50037013  0.46303374  0.49884598    -0.05900
H2126       H  0.47224983  0.39059323  0.48846616     0.14800
C2127       C  0.43224125  0.31519508  0.52831404    -0.16100
H2128       H  0.45816794  0.38745036  0.53813471     0.09200
H2129       H  0.60427791  0.56488392  0.53968733     0.07000
H2130       H  0.60158081  0.51875765  0.54214972     0.08200
H2131       H  0.58828339  0.53967525  0.55571648     0.07300
H2132       H  0.40856585  0.42176029  0.53207028     0.02100
H2133       H  0.42098038  0.44908485  0.51645557     0.02600
H2134       H  0.40746326  0.46656520  0.53100665     0.06100
H2135       H  0.50149474  0.45874777  0.48783966     0.05100
H2136       H  0.53082193  0.48243740  0.50249044    -0.00700
H2137       H  0.48311122  0.47769788  0.50050351     0.00800
H2138       H  0.44914277  0.30048736  0.52603875     0.04500
H2139       H  0.40077311  0.29546594  0.52592788     0.06400
H2140       H  0.43440857  0.32082688  0.53932752     0.07300
C2141       C  0.81561772  0.49661602  0.76878267    -0.22300
C2142       C  0.79821415  0.45586345  0.76811565     0.09600
C2143       C  0.80500839  0.43825147  0.75693186     0.10000
C2144       C  0.82896221  0.46205624  0.74646979    -0.17300
C2145       C  0.84611123  0.50288756  0.74705331    -0.27700
C2146       C  0.84003554  0.52049805  0.75846079     0.18400
C2147       C  0.77580941  0.43246810  0.77980907     0.12300
C2148       C  0.78702996  0.39445449  0.75610129    -0.12000
H2149       H  0.83363623  0.44875665  0.73767410     0.12600
C2150       C  0.86001945  0.56423738  0.76035279    -0.22900
H2151       H  0.81100292  0.50988907  0.77760419     0.08300
C2152       C  0.79517423  0.42706720  0.79079352     0.04600
C2153       C  0.77315586  0.40448050  0.80171737    -0.20100
C2154       C  0.73222458  0.38714078  0.80189225    -0.12400
C2155       C  0.71261604  0.39175253  0.79068045     0.13300
C2156       C  0.73491394  0.41500593  0.77982600    -0.22800
C2157       C  0.83908584  0.44516519  0.79098306    -0.05900
H2158       H  0.78809518  0.40091811  0.81030931     0.14800
C2159       C  0.66855171  0.37144393  0.78948569    -0.16100
H2160       H  0.72031545  0.41889361  0.77119884     0.09200
H2161       H  0.87669688  0.57243612  0.76997794     0.07000
H2162       H  0.83767783  0.57329527  0.76078231     0.08200
H2163       H  0.88119312  0.58087740  0.75225065     0.07300
H2164       H  0.75457831  0.38009252  0.75634611     0.02100
H2165       H  0.79704038  0.38390108  0.76475556     0.02600
H2166       H  0.79541135  0.38552434  0.74667341     0.06100
H2167       H  0.84919776  0.43721833  0.80026439     0.05100
H2168       H  0.85341644  0.47757592  0.79054849    -0.00700
H2169       H  0.84853855  0.43468963  0.78220607     0.00800
H2170       H  0.65925128  0.39361749  0.78925280     0.04500
H2171       H  0.65295872  0.35050744  0.79775467     0.06400
H2172       H  0.65904184  0.35433423  0.77997608     0.07300
C2173       C  0.98978578  0.51462782  0.70862614    -0.22300
C2174       C  0.02175928  0.55090840  0.70494503     0.09600
C2175       C  0.01859356  0.58477456  0.70536962     0.10000
C2176       C  0.98337889  0.58163333  0.70965321    -0.17300
C2177       C  0.95126151  0.54539204  0.71353203    -0.27700
C2178       C  0.95429296  0.51120780  0.71274143     0.18400
C2179       C  0.05881526  0.55304039  0.70111147     0.12300
C2180       C  0.05254537  0.62422458  0.70144600    -0.12000
H2181       H  0.98120183  0.60781409  0.71024692     0.12600
C2182       C  0.92068289  0.47050047  0.71559394    -0.22900
H2183       H  0.99247960  0.48870950  0.70816838     0.08300
C2184       C  0.08720200  0.55933404  0.71091759     0.04600
C2185       C  0.12260101  0.56279301  0.70686277    -0.20100
C2186       C  0.13037501  0.55991232  0.69322578    -0.12400
C2187       C  0.10109302  0.55185137  0.68344025     0.13300
C2188       C  0.06576655  0.54902277  0.68752674    -0.22800
C2189       C  0.08044120  0.56305670  0.72564129    -0.05900
H2190       H  0.14494954  0.56914037  0.71440667     0.14800
C2191       C  0.10533531  0.54478042  0.66879444    -0.16100
H2192       H  0.04338543  0.54345173  0.68008783     0.09200
H2193       H  0.92765934  0.45838294  0.72458540     0.07000
H2194       H  0.91628279  0.45129466  0.70682682     0.08200
H2195       H  0.89243741  0.46924473  0.71723012     0.07300
H2196       H  0.06073217  0.62341361  0.69081824     0.02100
H2197       H  0.07815279  0.63186282  0.70804385     0.02600
H2198       H  0.04518026  0.64772307  0.70239574     0.06100
H2199       H  0.10586677  0.56809443  0.73193875     0.05100
H2200       H  0.05425762  0.53574753  0.72918512    -0.00700
H2201       H  0.07567371  0.58810076  0.72717800     0.00800
H2202       H  0.08014120  0.51604304  0.66568511     0.04500
H2203       H  0.13222745  0.54370613  0.66666370     0.06400
H2204       H  0.10543915  0.56815352  0.66255781     0.07300
C2205       C  0.61643897  0.71810156  0.65934378    -0.22300
C2206       C  0.60878667  0.71955619  0.67301923     0.09600
C2207       C  0.63757304  0.72639770  0.68273797     0.10000
C2208       C  0.67366410  0.73155489  0.67853786    -0.17300
C2209       C  0.68139956  0.72954029  0.66484927    -0.27700
C2210       C  0.65235078  0.72276228  0.65509753     0.18400
C2211       C  0.56905183  0.71007710  0.67698461     0.12300
C2212       C  0.62989619  0.72763876  0.69752904    -0.12000
H2213       H  0.69580689  0.73665694  0.68601183     0.12600
C2214       C  0.65792460  0.71818155  0.64033446    -0.22900
H2215       H  0.59367277  0.71209359  0.65201391     0.08300
C2216       C  0.55729423  0.73825969  0.67662017     0.04600
C2217       C  0.51843060  0.72684823  0.67978475    -0.20100
C2218       C  0.49136603  0.68795669  0.68330212    -0.12400
C2219       C  0.50341734  0.65981566  0.68378476     0.13300
C2220       C  0.54226274  0.67139265  0.68065048    -0.22800
C2221       C  0.58562370  0.78010787  0.67277182    -0.05900
H2222       H  0.50893910  0.74817280  0.67932485     0.14800
C2223       C  0.47514082  0.61717912  0.68685597    -0.16100
H2224       H  0.55171008  0.65001061  0.68076704     0.09200
H2225       H  0.68195087  0.74612213  0.63621323     0.07000
H2226       H  0.63108343  0.71028338  0.63437926     0.08200
H2227       H  0.66493710  0.69456218  0.63893668     0.07300
H2228       H  0.60477439  0.69904580  0.70075174     0.02100
H2229       H  0.62293992  0.75107942  0.69945156     0.02600
H2230       H  0.65571027  0.73367664  0.70377992     0.06100
H2231       H  0.57168817  0.79841411  0.67310985     0.05100
H2232       H  0.59642879  0.78126753  0.66238088    -0.00700
H2233       H  0.61087994  0.79283693  0.67985080     0.00800
H2234       H  0.48927772  0.59914674  0.68598902     0.04500
H2235       H  0.45015449  0.60527012  0.67966066     0.06400
H2236       H  0.46407304  0.61395538  0.69730681     0.07300
C2237       C  0.82111966  0.82802954  0.61843732    -0.22300
C2238       C  0.83383080  0.80806221  0.61013257     0.09600
C2239       C  0.82767097  0.77116785  0.61411418     0.10000
C2240       C  0.80821189  0.75462125  0.62624660    -0.17300
C2241       C  0.79459649  0.77404542  0.63446439    -0.27700
C2242       C  0.80167098  0.81154405  0.63062031     0.18400
C2243       C  0.85385662  0.82641335  0.59732837     0.12300
C2244       C  0.84129080  0.74913534  0.60547425    -0.12000
H2245       H  0.80303980  0.72602479  0.62923475     0.12600
C2246       C  0.79025050  0.83492416  0.63952423    -0.22900
H2247       H  0.82657415  0.85666441  0.61536526     0.08300
C2248       C  0.83248228  0.82338388  0.58554455     0.04600
C2249       C  0.85278018  0.84159086  0.57367104    -0.20100
C2250       C  0.89396163  0.86207016  0.57328184    -0.12400
C2251       C  0.91531046  0.86453088  0.58506914     0.13300
C2252       C  0.89491274  0.84677225  0.59697838    -0.22800
C2253       C  0.78833769  0.80073924  0.58551070    -0.05900
H2254       H  0.83646489  0.83979901  0.56463156     0.14800
C2255       C  0.95951414  0.88706888  0.58529152    -0.16100
H2256       H  0.91100517  0.84881978  0.60609740     0.09200
H2257       H  0.75790511  0.81984508  0.64049204     0.07000
H2258       H  0.80034034  0.86457320  0.63533679     0.08200
H2259       H  0.80373007  0.83855531  0.64964641     0.07300
H2260       H  0.87360175  0.76664030  0.60425483     0.02100
H2261       H  0.82712508  0.74352081  0.59540859     0.02600
H2262       H  0.83380956  0.72050096  0.61000780     0.06100
H2263       H  0.77634707  0.80075456  0.57539847     0.05100
H2264       H  0.77709700  0.81402460  0.59275358    -0.00700
H2265       H  0.77756242  0.76984179  0.58843641     0.00800
H2266       H  0.97126848  0.88752425  0.59550978     0.04500
H2267       H  0.97057684  0.91786232  0.58214526     0.06400
H2268       H  0.97098417  0.87326485  0.57837273     0.07300
C2269       C  0.83588260  0.69217154  0.68543277    -0.22300
C2270       C  0.80993201  0.65333234  0.68917708     0.09600
C2271       C  0.76966960  0.63599648  0.68613195     0.10000
C2272       C  0.75648777  0.65757850  0.67884268    -0.17300
C2273       C  0.78276992  0.69597446  0.67452316    -0.27700
C2274       C  0.82283846  0.71383439  0.67816312     0.18400
C2275       C  0.82578347  0.63151578  0.69631907     0.12300
C2276       C  0.74088347  0.59457688  0.69035006    -0.12000
H2277       H  0.72571621  0.64407468  0.67620171     0.12600
C2278       C  0.85179376  0.75601191  0.67481312    -0.22900
H2279       H  0.86659278  0.70543171  0.68813410     0.08300
C2280       C  0.84565323  0.61570469  0.68939222     0.04600
C2281       C  0.86076201  0.59581316  0.69665560    -0.20100
C2282       C  0.85612855  0.59100156  0.71069541    -0.12400
C2283       C  0.83632048  0.60736938  0.71761182     0.13300
C2284       C  0.82158126  0.62747777  0.71028833    -0.22800
C2285       C  0.85032028  0.61930815  0.67431437    -0.05900
H2286       H  0.87561900  0.58330131  0.69127101     0.14800
C2287       C  0.83143538  0.60516000  0.73270080    -0.16100
H2288       H  0.80664078  0.64025085  0.71547397     0.09200
H2289       H  0.85599607  0.75983849  0.66376322     0.07000
H2290       H  0.88097610  0.76583828  0.67940587     0.08200
H2291       H  0.84103364  0.77514163  0.67871780     0.07300
H2292       H  0.74067620  0.59217107  0.70149535     0.02100
H2293       H  0.74938030  0.57424100  0.68589735     0.02600
H2294       H  0.71061009  0.58532432  0.68697452     0.06100
H2295       H  0.86601060  0.60468554  0.67045134     0.05100
H2296       H  0.86735574  0.65067459  0.67140093    -0.00700
H2297       H  0.82100218  0.60548895  0.66943712     0.00800
H2298       H  0.86052667  0.61745449  0.73763644     0.04500
H2299       H  0.81177537  0.57439314  0.73590979     0.06400
H2300       H  0.81799402  0.62225044  0.73628938     0.07300
C2301       C  0.31966856  0.07520667  0.85973444    -0.22300
C2302       C  0.35077624  0.09248596  0.86893181     0.09600
C2303       C  0.34526200  0.07919651  0.88237212     0.10000
C2304       C  0.30883869  0.04765255  0.88621045    -0.17300
C2305       C  0.27815324  0.02895012  0.87685511    -0.27700
C2306       C  0.28319422  0.04360871  0.86353988     0.18400
C2307       C  0.38978575  0.12251987  0.86410590     0.12300
C2308       C  0.37817380  0.09757273  0.89252185    -0.12000
H2309       H  0.30484613  0.03642192  0.89640917     0.12600
C2310       C  0.25083419  0.02718057  0.85316278    -0.22900
H2311       H  0.32414123  0.08595911  0.84945900     0.08300
C2312       C  0.41656522  0.11186947  0.85931873     0.04600
C2313       C  0.45465175  0.14126059  0.85602735    -0.20100
C2314       C  0.46677583  0.18102354  0.85766219    -0.12400
C2315       C  0.43909834  0.19157446  0.86179997     0.13300
C2316       C  0.40079148  0.16204207  0.86495339    -0.22800
C2317       C  0.40519080  0.06946110  0.85807143    -0.05900
H2318       H  0.47562672  0.13308149  0.85281443     0.14800
C2319       C  0.44933723  0.23363770  0.86270719    -0.16100
H2320       H  0.37961603  0.16972316  0.86845896     0.09200
H2321       H  0.25910768  0.01471852  0.84464550     0.07000
H2322       H  0.24646194  0.05104528  0.84928412     0.08200
H2323       H  0.22231716  0.00417130  0.85722686     0.07300
H2324       H  0.38810003  0.12915472  0.89363979     0.02100
H2325       H  0.40319763  0.09452053  0.88912323     0.02600
H2326       H  0.36888884  0.08351782  0.90257444     0.06100
H2327       H  0.42963149  0.06625266  0.85413467     0.05100
H2328       H  0.37996498  0.05420825  0.85105361    -0.00700
H2329       H  0.39682760  0.05502018  0.86808070     0.00800
H2330       H  0.46142302  0.24850188  0.85292710     0.04500
H2331       H  0.47096430  0.24888344  0.87088320     0.06400
H2332       H  0.42315541  0.23595654  0.86501373     0.07300
C2333       C  0.17268145  0.97707158  0.93294973    -0.22300
C2334       C  0.13202090  0.95196046  0.93345792     0.09600
C2335       C  0.11210777  0.92785765  0.92234681     0.10000
C2336       C  0.13328905  0.93011646  0.91076598    -0.17300
C2337       C  0.17399704  0.95590664  0.91002898    -0.27700
C2338       C  0.19410576  0.97921095  0.92141430     0.18400
C2339       C  0.11064956  0.95131727  0.94571769     0.12300
C2340       C  0.06855905  0.89948555  0.92278001    -0.12000
H2341       H  0.11780094  0.91194395  0.90216231     0.12600
C2342       C  0.23809426  0.00532535  0.92175756    -0.22900
H2343       H  0.18765517  0.99505741  0.94165001     0.08300
C2344       C  0.11018271  0.93047644  0.95732153     0.04600
C2345       C  0.08792552  0.92924150  0.96846554    -0.20100
C2346       C  0.06716601  0.94933402  0.96835940    -0.12400
C2347       C  0.06732686  0.96989829  0.95665391     0.13300
C2348       C  0.08938255  0.97083826  0.94550507    -0.22800
C2349       C  0.13320398  0.90968194  0.95793624    -0.05900
H2350       H  0.08772137  0.91357672  0.97746757     0.14800
C2351       C  0.04359648  0.98994362  0.95536769    -0.16100
H2352       H  0.08955181  0.98643468  0.93648478     0.09200
H2353       H  0.24872300  0.01851056  0.93186955     0.07000
H2354       H  0.24750326  0.02981492  0.91450685     0.08200
H2355       H  0.25226178  0.98803417  0.91926741     0.07300
H2356       H  0.05266747  0.91564833  0.92417143     0.02100
H2357       H  0.06159734  0.87870522  0.93127787     0.02600
H2358       H  0.05774248  0.88221051  0.91333522     0.06100
H2359       H  0.12921680  0.89443306  0.96771542     0.05100
H2360       H  0.16492472  0.93116813  0.95671498    -0.00700
H2361       H  0.12341530  0.88755346  0.94976663     0.00800
H2362       H  0.06357751  0.02192287  0.95398110     0.04500
H2363       H  0.02468495  0.98531482  0.96419294     0.06400
H2364       H  0.02397181  0.97817774  0.94645178     0.07300
C2365       C  0.97963704  0.51839645  0.84710281    -0.22300
C2366       C  0.94859173  0.50163759  0.83784798     0.09600
C2367       C  0.95444101  0.51592074  0.82452362     0.10000
C2368       C  0.99116378  0.54728132  0.82079505    -0.17300
C2369       C  0.02185338  0.56525714  0.83017600    -0.27700
C2370       C  0.01638638  0.54996042  0.84341665     0.18400
C2371       C  0.90931620  0.47113439  0.84248518     0.12300
C2372       C  0.92153228  0.49886555  0.81437421    -0.12000
H2373       H  0.99536023  0.55906941  0.81067337     0.12600
C2374       C  0.04866369  0.56561082  0.85380867    -0.22900
H2375       H  0.97500024  0.50709803  0.85730650     0.08300
C2376       C  0.89620763  0.43089995  0.84123292     0.04600
C2377       C  0.85739639  0.40334551  0.84469185    -0.20100
C2378       C  0.83154713  0.41511728  0.84953407    -0.12400
C2379       C  0.84491020  0.45567982  0.85068670     0.13300
C2380       C  0.88379911  0.48308544  0.84730018    -0.22800
C2381       C  0.92300852  0.41716632  0.83608406    -0.05900
H2382       H  0.84696873  0.37244626  0.84336465     0.14800
C2383       C  0.81784289  0.47048895  0.85456065    -0.16100
H2384       H  0.89408680  0.51415874  0.84795104     0.09200
H2385       H  0.05260587  0.54136019  0.85755203     0.07000
H2386       H  0.04063994  0.57799892  0.86241478     0.08200
H2387       H  0.07728846  0.58843297  0.84975800     0.07300
H2388       H  0.89684688  0.50219009  0.81799620     0.02100
H2389       H  0.91112587  0.46731552  0.81291531     0.02600
H2390       H  0.93097160  0.51364104  0.80443803     0.06100
H2391       H  0.90808407  0.38468632  0.83572002     0.05100
H2392       H  0.94891172  0.42798938  0.84282199    -0.00700
H2393       H  0.93306373  0.42855702  0.82576022     0.00800
H2394       H  0.83271436  0.50294678  0.85401071     0.04500
H2395       H  0.80756053  0.46184678  0.86506092     0.06400
H2396       H  0.79229686  0.45832712  0.84759668     0.07300
C2397       C  0.18347150  0.66997092  0.78224924    -0.22300
C2398       C  0.16291770  0.64058926  0.77272639     0.09600
C2399       C  0.12382202  0.61129797  0.77520054     0.10000
C2400       C  0.10633545  0.61140767  0.78743494    -0.17300
C2401       C  0.12686788  0.64050416  0.79721169    -0.27700
C2402       C  0.16604138  0.67070590  0.79442814     0.18400
C2403       C  0.18391713  0.63938155  0.76066754     0.12300
C2404       C  0.10050793  0.58018849  0.76485266    -0.12000
H2405       H  0.07628774  0.58868949  0.78930124     0.12600
C2406       C  0.19052062  0.70333834  0.80420185    -0.22900
H2407       H  0.21361679  0.69216424  0.78017559     0.08300
C2408       C  0.19100770  0.66428843  0.74954717     0.04600
C2409       C  0.21063320  0.66119815  0.73830425    -0.20100
C2410       C  0.22325340  0.63380333  0.73802217    -0.12400
C2411       C  0.21703179  0.60964552  0.74938836     0.13300
C2412       C  0.19737991  0.61281666  0.76056413    -0.22800
C2413       C  0.17753781  0.69370743  0.74951499    -0.05900
H2414       H  0.21572241  0.67988240  0.72963543     0.14800
C2415       C  0.23213211  0.58145755  0.75005552    -0.16100
H2416       H  0.19234587  0.59440929  0.76931060     0.09200
H2417       H  0.17767330  0.72236976  0.80553837     0.07000
H2418       H  0.22095282  0.72244164  0.80052848     0.08200
H2419       H  0.19237988  0.69092775  0.81402966     0.07300
H2420       H  0.11463646  0.56261694  0.76282650     0.02100
H2421       H  0.09900444  0.59425811  0.75535901     0.02600
H2422       H  0.07006916  0.55988761  0.76828160     0.06100
H2423       H  0.18493980  0.71043169  0.73992019     0.05100
H2424       H  0.19192340  0.71492457  0.75786678    -0.00700
H2425       H  0.14525222  0.67838732  0.75084037     0.00800
H2426       H  0.22728198  0.56748768  0.76012732     0.04500
H2427       H  0.26414758  0.59727001  0.74804288     0.06400
H2428       H  0.21663764  0.55760889  0.74258808     0.07300
C2429       C  0.12843883  0.74536908  0.85706621    -0.22300
C2430       C  0.14209015  0.77960091  0.84942373     0.09600
C2431       C  0.14161793  0.77769136  0.83526843     0.10000
C2432       C  0.12684529  0.74122484  0.82902207    -0.17300
C2433       C  0.11287857  0.70661229  0.83660086    -0.27700
C2434       C  0.11389635  0.70877365  0.85084736     0.18400
C2435       C  0.15648360  0.81718039  0.85649612     0.12300
C2436       C  0.15651416  0.81408037  0.82677710    -0.12000
H2437       H  0.12623515  0.73978906  0.81811454     0.12600
C2438       C  0.10123150  0.67319983  0.85958027    -0.22900
H2439       H  0.12935451  0.74743996  0.86796296     0.08300
C2440       C  0.13025809  0.82781030  0.86186474     0.04600
C2441       C  0.14518667  0.86329113  0.86884217    -0.20100
C2442       C  0.18574838  0.88870231  0.87029439    -0.12400
C2443       C  0.21205244  0.87825153  0.86463838     0.13300
C2444       C  0.19695151  0.84234548  0.85789550    -0.22800
C2445       C  0.08660325  0.80188644  0.86008121    -0.05900
H2446       H  0.12509150  0.87142910  0.87308555     0.14800
C2447       C  0.25590025  0.90393834  0.86603551    -0.16100
H2448       H  0.21673041  0.83372162  0.85369693     0.09200
H2449       H  0.06939932  0.65243072  0.85824740     0.07000
H2450       H  0.10638344  0.68095331  0.87043553     0.08200
H2451       H  0.11813330  0.65878120  0.85688537     0.07300
H2452       H  0.18802451  0.83448400  0.82896105     0.02100
H2453       H  0.13965085  0.82882098  0.82906139     0.02600
H2454       H  0.15349465  0.80724201  0.81584119     0.06100
H2455       H  0.07030407  0.81495685  0.86468765     0.05100
H2456       H  0.07655967  0.77304028  0.86491904    -0.00700
H2457       H  0.07928081  0.79745567  0.84917769     0.00800
H2458       H  0.27159428  0.88980891  0.86174591     0.04500
H2459       H  0.26404107  0.90999164  0.87684336     0.06400
H2460       H  0.26613966  0.93190084  0.86054505     0.07300
C2461       C  0.52124727  0.19498935  0.27838274    -0.22300
C2462       C  0.50252441  0.15400372  0.27857935     0.09600
C2463       C  0.50742521  0.13496204  0.28979429     0.10000
C2464       C  0.53078392  0.15744878  0.30062933    -0.17300
C2465       C  0.54855065  0.19847140  0.30069737    -0.27700
C2466       C  0.54460619  0.21758360  0.28921942     0.18400
C2467       C  0.47825449  0.13164014  0.26685458     0.12300
C2468       C  0.48744306  0.09093624  0.29043602    -0.12000
H2469       H  0.53489494  0.14285868  0.30918983     0.12600
C2470       C  0.56603922  0.26149092  0.28763903    -0.22900
H2471       H  0.51805366  0.20948664  0.26959648     0.08300
C2472       C  0.44024748  0.12553710  0.26490325     0.04600
C2473       C  0.41829745  0.10411587  0.25367741    -0.20100
C2474       C  0.43340046  0.08857169  0.24431896    -0.12400
C2475       C  0.47176774  0.09502390  0.24625710     0.13300
C2476       C  0.49366583  0.11651557  0.25752400    -0.22800
C2477       C  0.42274221  0.14134107  0.27473575    -0.05900
H2478       H  0.38897704  0.09926710  0.25224957     0.14800
C2479       C  0.49046605  0.08074838  0.23630840    -0.16100
H2480       H  0.52308702  0.12174646  0.25906766     0.09200
H2481       H  0.54445284  0.27144011  0.28673831     0.07000
H2482       H  0.58396099  0.26986421  0.27832206     0.08200
H2483       H  0.58635717  0.27730485  0.29604998     0.07300
H2484       H  0.49784079  0.07993971  0.28208472     0.02100
H2485       H  0.45522066  0.07802912  0.28955397     0.02600
H2486       H  0.49363378  0.08079919  0.30008472     0.06100
H2487       H  0.39240423  0.13326311  0.27184520     0.05100
H2488       H  0.44076128  0.17379098  0.27508663    -0.00700
H2489       H  0.42179995  0.12931388  0.28493203     0.00800
H2490       H  0.52144516  0.09085371  0.23898864     0.04500
H2491       H  0.49012499  0.09208687  0.22609676     0.06400
H2492       H  0.47447628  0.04825806  0.23615002     0.07300
C2493       C  0.34872599  0.90905814  0.20697644    -0.22300
C2494       C  0.38403017  0.91232986  0.20276829     0.09600
C2495       C  0.41884609  0.94910726  0.20304751     0.10000
C2496       C  0.41776131  0.98183856  0.20786877    -0.17300
C2497       C  0.38254185  0.97860937  0.21223493    -0.27700
C2498       C  0.34748179  0.94169445  0.21179383     0.18400
C2499       C  0.38424346  0.87632459  0.19898143     0.12300
C2500       C  0.45710482  0.95360778  0.19839191    -0.12000
H2501       H  0.44450762  0.01015577  0.20820095     0.12600
C2502       C  0.30866317  0.93505244  0.21685559    -0.22900
H2503       H  0.32214138  0.88056853  0.20685286     0.08300
C2504       C  0.38705682  0.85234441  0.20889334     0.04600
C2505       C  0.38540855  0.81756358  0.20500365    -0.20100
C2506       C  0.38116284  0.80609102  0.19139002    -0.12400
C2507       C  0.38077850  0.83157523  0.18138747     0.13300
C2508       C  0.38150259  0.86598523  0.18536835    -0.22800
C2509       C  0.39110606  0.86313812  0.22360789    -0.05900
H2510       H  0.38569616  0.79839293  0.21276537     0.14800
C2511       C  0.38082623  0.82432456  0.16648437    -0.16100
H2512       H  0.38031534  0.88513414  0.17778932     0.09200
H2513       H  0.29745210  0.91214602  0.22480412     0.07000
H2514       H  0.28720727  0.92487313  0.20842533     0.08200
H2515       H  0.31043885  0.96150106  0.22131740     0.07300
H2516       H  0.45461878  0.94480401  0.18765867     0.02100
H2517       H  0.46445801  0.93477082  0.20456681     0.02600
H2518       H  0.48157057  0.98436374  0.19930693     0.06100
H2519       H  0.39311584  0.84119410  0.23003233     0.05100
H2520       H  0.36527076  0.86488233  0.22693345    -0.00700
H2521       H  0.41807830  0.89197716  0.22520936     0.00800
H2522       H  0.35247119  0.81798907  0.16197827     0.04500
H2523       H  0.38619116  0.80011977  0.16411876     0.06400
H2524       H  0.40486381  0.85090702  0.16160794     0.07300
C2525       C  0.09337202  0.04223117  0.09735573    -0.22300
C2526       C  0.11216413  0.08320187  0.09774886     0.09600
C2527       C  0.11477494  0.10436555  0.08597514     0.10000
C2528       C  0.09715327  0.08384528  0.07409710    -0.17300
C2529       C  0.07776193  0.04277919  0.07370250    -0.27700
C2530       C  0.07606234  0.02162485  0.08543087     0.18400
C2531       C  0.12864381  0.10337335  0.11065676     0.12300
C2532       C  0.13626854  0.14851040  0.08594214    -0.12000
H2533       H  0.09841700  0.09989028  0.06505913     0.12600
C2534       C  0.05453673  0.97744791  0.08559186    -0.22900
H2535       H  0.09171480  0.02637606  0.10648275     0.08300
C2536       C  0.10711469  0.11376340  0.11927577     0.04600
C2537       C  0.12430038  0.13339226  0.13135529    -0.20100
C2538       C  0.16215971  0.14212310  0.13508582    -0.12400
C2539       C  0.18384792  0.13201822  0.12630029     0.13300
C2540       C  0.16652057  0.11235326  0.11425588    -0.22800
C2541       C  0.06574365  0.10327264  0.11587045    -0.05900
H2542       H  0.10771848  0.14104110  0.13809969     0.14800
C2543       C  0.22571300  0.14272674  0.12892000    -0.16100
H2544       H  0.18293368  0.10452966  0.10748796     0.09200
H2545       H  0.05463218  0.96581063  0.09577599     0.07000
H2546       H  0.06872592  0.96660922  0.07858350     0.08200
H2547       H  0.02353875  0.96567362  0.08251102     0.07300
H2548       H  0.16739421  0.16013009  0.08880101     0.02100
H2549       H  0.12269906  0.15930432  0.09322473     0.02600
H2550       H  0.13557132  0.16029032  0.07585294     0.06100
H2551       H  0.05299185  0.11324074  0.12378618     0.05100
H2552       H  0.04696538  0.07098561  0.11489531    -0.00700
H2553       H  0.06516355  0.11716525  0.10622442     0.00800
H2554       H  0.22717053  0.11562679  0.13024836     0.04500
H2555       H  0.23890181  0.16163848  0.13785438     0.06400
H2556       H  0.24409747  0.15925138  0.12015975     0.07300
C2557       C  0.26000582  0.38953842  0.18114008    -0.22300
C2558       C  0.22040410  0.36355534  0.17837316     0.09600
C2559       C  0.19331785  0.37669310  0.17889582     0.10000
C2560       C  0.20685827  0.41623707  0.18176350    -0.17300
C2561       C  0.24682929  0.44272914  0.18411897    -0.27700
C2562       C  0.27384025  0.42914120  0.18374707     0.18400
C2563       C  0.20876218  0.32331240  0.17421050     0.12300
C2564       C  0.15042731  0.34920143  0.17612780    -0.12000
H2565       H  0.18628087  0.42670251  0.18195397     0.12600
C2566       C  0.31763399  0.45539680  0.18515353    -0.22900
H2567       H  0.28060905  0.37911857  0.18064280     0.08300
C2568       C  0.21606770  0.31535310  0.16103674     0.04600
C2569       C  0.20761662  0.27738859  0.15780999    -0.20100
C2570       C  0.19246208  0.24741873  0.16750522    -0.12400
C2571       C  0.18347245  0.25512340  0.18053513     0.13300
C2572       C  0.19218127  0.29317769  0.18375176    -0.22800
C2573       C  0.23337713  0.34708955  0.15047594    -0.05900
H2574       H  0.21448650  0.27151899  0.14783544     0.14800
C2575       C  0.16403556  0.22398131  0.19120280    -0.16100
H2576       H  0.18628353  0.29949119  0.19381107     0.09200
H2577       H  0.33243815  0.45129602  0.17635452     0.07000
H2578       H  0.32768982  0.44730631  0.19442251     0.08200
H2579       H  0.32751081  0.48693732  0.18551558     0.07300
H2580       H  0.13840161  0.32495531  0.18358455     0.02100
H2581       H  0.14655892  0.33682351  0.16583576     0.02600
H2582       H  0.13329928  0.36433539  0.17682387     0.06100
H2583       H  0.23666278  0.33571764  0.14064826     0.05100
H2584       H  0.26282492  0.37077416  0.15371944    -0.00700
H2585       H  0.21401111  0.35953180  0.14895371     0.00800
H2586       H  0.18435658  0.23086871  0.19985828     0.04500
H2587       H  0.15486378  0.19416943  0.18750994     0.06400
H2588       H  0.13713697  0.22334369  0.19476940     0.07300
C2589       C  0.28594239  0.09033996  0.21151635    -0.22300
C2590       C  0.29166512  0.10126697  0.19792471     0.09600
C2591       C  0.31968164  0.09752169  0.19033550     0.10000
C2592       C  0.34163669  0.08301539  0.19657522    -0.17300
C2593       C  0.33628564  0.07247194  0.21022758    -0.27700
C2594       C  0.30768704  0.07560693  0.21776578     0.18400
C2595       C  0.26800701  0.11650587  0.19172673     0.12300
C2596       C  0.32630937  0.10883460  0.17566842    -0.12000
H2597       H  0.36348439  0.08041698  0.19083810     0.12600
C2598       C  0.29834541  0.06251503  0.23223173    -0.22900
H2599       H  0.26404706  0.09291217  0.21723483     0.08300
C2600       C  0.23090982  0.09116735  0.18602609     0.04600
C2601       C  0.21143742  0.10712799  0.17897883    -0.20100
C2602       C  0.22797401  0.14786461  0.17773007    -0.12400
C2603       C  0.26456075  0.17322600  0.18397954     0.13300
C2604       C  0.28412091  0.15709385  0.19086829    -0.22800
C2605       C  0.21235271  0.04736510  0.18717695    -0.05900
H2606       H  0.18335540  0.08770841  0.17428123     0.14800
C2607       C  0.28423651  0.21720042  0.18290021    -0.16100
H2608       H  0.31265543  0.17619223  0.19533254     0.09200
H2609       H  0.26673329  0.04019008  0.23310351     0.07000
H2610       H  0.30473231  0.08797918  0.23867206     0.08200
H2611       H  0.31506714  0.04909367  0.23618268     0.07300
H2612       H  0.33597036  0.14036302  0.17454249     0.02100
H2613       H  0.29866902  0.09108977  0.16993001     0.02600
H2614       H  0.34915612  0.10388346  0.17121112     0.06100
H2615       H  0.18331060  0.03175510  0.18210162     0.05100
H2616       H  0.20811471  0.03871952  0.19796081    -0.00700
H2617       H  0.23157770  0.03786588  0.18245479     0.00800
H2618       H  0.26637320  0.22761024  0.18807569     0.04500
H2619       H  0.28801846  0.22608294  0.17214097     0.06400
H2620       H  0.31368476  0.23208163  0.18770636     0.07300
C2621       C  0.44113292  0.97070619  0.32996722    -0.22300
C2622       C  0.43694512  0.98717363  0.34183780     0.09600
C2623       C  0.40197770  0.96715491  0.34923878     0.10000
C2624       C  0.37133597  0.93147583  0.34435845    -0.17300
C2625       C  0.37413314  0.91551965  0.33198665    -0.27700
C2626       C  0.41035286  0.93522373  0.32488082     0.18400
C2627       C  0.46708877  0.02793054  0.34516610     0.12300
C2628       C  0.39648600  0.98416819  0.36205044    -0.12000
H2629       H  0.34451992  0.91672259  0.35014392     0.12600
C2630       C  0.41714336  0.92038766  0.31178489    -0.22900
H2631       H  0.46822354  0.98671134  0.32435106     0.08300
C2632       C  0.49959310  0.03729108  0.35352336     0.04600
C2633       C  0.52756873  0.07689802  0.35588669    -0.20100
C2634       C  0.52384076  0.10699255  0.34987646    -0.12400
C2635       C  0.49081466  0.09729962  0.34164260     0.13300
C2636       C  0.46296955  0.05791926  0.33941997    -0.22800
C2637       C  0.50500528  0.00558507  0.35970423    -0.05900
H2638       H  0.55263420  0.08436558  0.36227544     0.14800
C2639       C  0.48368806  0.12732551  0.33494009    -0.16100
H2640       H  0.43783402  0.05045250  0.33302361     0.09200
H2641       H  0.41302928  0.89071579  0.31323405     0.07000
H2642       H  0.44738526  0.93954262  0.30795455     0.08200
H2643       H  0.39676459  0.91977452  0.30395993     0.07300
H2644       H  0.39916966  0.01298036  0.35992935     0.02100
H2645       H  0.41910857  0.98817627  0.36954163     0.02600
H2646       H  0.36722288  0.96481189  0.36658505     0.06100
H2647       H  0.53214174  0.01796548  0.36589695     0.05100
H2648       H  0.50708742  0.98737851  0.35162603    -0.00700
H2649       H  0.47972088  0.98667872  0.36627658     0.00800
H2650       H  0.48236585  0.12326104  0.32387592     0.04500
H2651       H  0.50641819  0.15776145  0.33727787     0.06400
H2652       H  0.45497811  0.12299272  0.33820780     0.07300
C2653       C  0.34495590  0.75200118  0.25947747    -0.22300
C2654       C  0.31163542  0.75491848  0.26172434     0.09600
C2655       C  0.28109252  0.73983261  0.25215208     0.10000
C2656       C  0.28433617  0.72159766  0.24054283    -0.17300
C2657       C  0.31758786  0.71823041  0.23819468    -0.27700
C2658       C  0.34849550  0.73388803  0.24785089     0.18400
C2659       C  0.30927832  0.77380651  0.27424123     0.12300
C2660       C  0.24498109  0.74279733  0.25424713    -0.12000
H2661       H  0.26068770  0.71002115  0.23322724     0.12600
C2662       C  0.38478811  0.73079967  0.24633124    -0.22900
H2663       H  0.36820479  0.76379001  0.26694964     0.08300
C2664       C  0.29508455  0.75246821  0.28633012     0.04600
C2665       C  0.29307485  0.77162886  0.29792473    -0.20100
C2666       C  0.30547092  0.81171324  0.29770225    -0.12400
C2667       C  0.31916927  0.83290147  0.28548241     0.13300
C2668       C  0.32117535  0.81365933  0.27393577    -0.22800
C2669       C  0.28231328  0.70960443  0.28696746    -0.05900
H2670       H  0.28253673  0.75546857  0.30727826     0.14800
C2671       C  0.33054335  0.87530072  0.28405338    -0.16100
H2672       H  0.33166108  0.82974663  0.26455993     0.09200
H2673       H  0.40433841  0.74253707  0.25526842     0.07000
H2674       H  0.40197324  0.74806668  0.23748548     0.08200
H2675       H  0.37645195  0.69962154  0.24514737     0.07300
H2676       H  0.25331785  0.77406788  0.25494973     0.02100
H2677       H  0.23015096  0.72754189  0.26370048     0.02600
H2678       H  0.22374262  0.72927865  0.24581647     0.06100
H2679       H  0.27184088  0.69726113  0.29717647     0.05100
H2680       H  0.30732377  0.70554542  0.28439093    -0.00700
H2681       H  0.25804723  0.69293372  0.27970240     0.00800
H2682       H  0.36195450  0.89301318  0.28124242     0.04500
H2683       H  0.32574169  0.88776052  0.29332725     0.06400
H2684       H  0.31262360  0.87808563  0.27596679     0.07300
C2685       C  0.94986904  0.79209252  0.42399123    -0.22300
C2686       C  0.98461252  0.80920766  0.43152220     0.09600
C2687       C  0.01683247  0.80644206  0.42700885     0.10000
C2688       C  0.01368620  0.78685252  0.41489514    -0.17300
C2689       C  0.97882864  0.76941072  0.40724889    -0.27700
C2690       C  0.94641725  0.77215195  0.41191266     0.18400
C2691       C  0.98636334  0.82978734  0.44415013     0.12300
C2692       C  0.05436121  0.82390573  0.43503451    -0.12000
H2693       H  0.03854023  0.78473353  0.41147537     0.12600
C2694       C  0.90855505  0.75545811  0.40410300    -0.22900
H2695       H  0.92535405  0.79453681  0.42759875     0.08300
C2696       C  0.99890510  0.87010619  0.44423725     0.04600
C2697       C  0.99895892  0.88805495  0.45641079    -0.20100
C2698       C  0.98608924  0.86635416  0.46838800    -0.12400
C2699       C  0.97375948  0.82598169  0.46831476     0.13300
C2700       C  0.97405213  0.80820896  0.45614786    -0.22800
C2701       C  0.01151642  0.89392388  0.43145915    -0.05900
H2702       H  0.00814804  0.91893662  0.45653690     0.14800
C2703       C  0.96087338  0.80098361  0.48086483    -0.16100
H2704       H  0.96449851  0.77724434  0.45599850     0.09200
H2705       H  0.88772669  0.76288794  0.40882866     0.07000
H2706       H  0.89389997  0.72304968  0.40377094     0.08200
H2707       H  0.91448247  0.76750462  0.39371289     0.07300
H2708       H  0.04840218  0.81023836  0.44517889     0.02100
H2709       H  0.06682258  0.85595279  0.43615382     0.02600
H2710       H  0.07669561  0.81906549  0.43008254     0.06100
H2711       H  0.02017489  0.92495628  0.43331051     0.05100
H2712       H  0.98697962  0.88147606  0.42408542    -0.00700
H2713       H  0.03699900  0.89345896  0.42703753     0.00800
H2714       H  0.92993806  0.77707308  0.47970462     0.04500
H2715       H  0.96313447  0.81762366  0.49011293     0.06400
H2716       H  0.97957252  0.78777778  0.48238477     0.07300
C2717       C  0.85654721  0.59470509  0.37825601    -0.22300
C2718       C  0.84775221  0.58963294  0.36446551     0.09600
C2719       C  0.86868410  0.62128847  0.35555146     0.10000
C2720       C  0.89969615  0.65673337  0.36054917    -0.17300
C2721       C  0.90939139  0.66161494  0.37432551    -0.27700
C2722       C  0.88691718  0.63038666  0.38334207     0.18400
C2723       C  0.81785258  0.55017924  0.35961362     0.12300
C2724       C  0.85806964  0.61771098  0.34082481    -0.12000
H2725       H  0.91658288  0.68076228  0.35366170     0.12600
C2726       C  0.89588286  0.63365069  0.39821256    -0.22900
H2727       H  0.84008367  0.57021938  0.38502212     0.08300
C2728       C  0.82872743  0.52345035  0.35487593     0.04600
C2729       C  0.79947308  0.48522456  0.35149259    -0.20100
C2730       C  0.75956019  0.47254144  0.35314001    -0.12400
C2731       C  0.74867818  0.50001281  0.35734357     0.13300
C2732       C  0.77806235  0.53839655  0.36061950    -0.22800
C2733       C  0.87118973  0.53458440  0.35409521    -0.05900
H2734       H  0.80790203  0.46439386  0.34833783     0.14800
C2735       C  0.70665997  0.49032227  0.35833310    -0.16100
H2736       H  0.76988469  0.55917998  0.36415682     0.09200
H2737       H  0.87671927  0.60567991  0.40357100     0.07000
H2738       H  0.89097406  0.65636707  0.40277493     0.08200
H2739       H  0.92677961  0.64139840  0.39984106     0.07300
H2740       H  0.82722149  0.61065955  0.33972725     0.02100
H2741       H  0.86117404  0.59410816  0.33607315     0.02600
H2742       H  0.87712286  0.64537989  0.33529184     0.06100
H2743       H  0.87451574  0.51000486  0.35038892     0.05100
H2744       H  0.88477577  0.54292975  0.36425166    -0.00700
H2745       H  0.88732935  0.55964786  0.34713174     0.00800
H2746       H  0.69958593  0.49270365  0.36897455     0.04500
H2747       H  0.68543047  0.46067426  0.35457210     0.06400
H2748       H  0.70255255  0.51141248  0.35215064     0.07300
C2749       C  0.08870936  0.76882457  0.34846293    -0.22300
C2750       C  0.12269657  0.78231306  0.35627459     0.09600
C2751       C  0.12049164  0.78409250  0.37040006     0.10000
C2752       C  0.08405363  0.77179571  0.37642722    -0.17300
C2753       C  0.04964810  0.75749935  0.36867261    -0.27700
C2754       C  0.05211819  0.75624564  0.35445382     0.18400
C2755       C  0.16044940  0.79534336  0.34937083     0.12300
C2756       C  0.15646809  0.79841672  0.37911135    -0.12000
H2757       H  0.08236383  0.77276094  0.38730331     0.12600
C2758       C  0.01679800  0.74294545  0.34546537    -0.22900
H2759       H  0.09093538  0.76817348  0.33759633     0.08300
C2760       C  0.17023435  0.76833245  0.34409431     0.04600
C2761       C  0.20601481  0.78229172  0.33732846    -0.20100
C2762       C  0.23241403  0.82265447  0.33588411    -0.12400
C2763       C  0.22231183  0.84967225  0.34116186     0.13300
C2764       C  0.18639438  0.83555611  0.34780613    -0.22800
C2765       C  0.14314206  0.72486783  0.34577001    -0.05900
H2766       H  0.21365800  0.76159892  0.33330114     0.14800
C2767       C  0.24829688  0.89334593  0.33941165    -0.16100
H2768       H  0.17828664  0.85598282  0.35176325     0.09200
H2769       H  0.99566632  0.71134432  0.34707388     0.07000
H2770       H  0.02491000  0.74685579  0.33463778     0.08200
H2771       H  0.00249532  0.76029798  0.34763318     0.07300
H2772       H  0.17818656  0.82927233  0.37655812     0.02100
H2773       H  0.16976862  0.77990388  0.37743499     0.02600
H2774       H  0.14942537  0.79717632  0.38998704     0.06100
H2775       H  0.15556717  0.70784964  0.34126345     0.05100
H2776       H  0.11465829  0.71572289  0.34075768    -0.00700
H2777       H  0.13808404  0.71751257  0.35665206     0.00800
H2778       H  0.23409549  0.90953255  0.34319258     0.04500
H2779       H  0.25491561  0.90053006  0.32857088     0.06400
H2780       H  0.27592369  0.90399433  0.34517173     0.07300
C2781       C  0.16113468  0.19329416  0.02752176    -0.22300
C2782       C  0.14680400  0.21886711  0.02915586     0.09600
C2783       C  0.10663021  0.20535315  0.02729240     0.10000
C2784       C  0.08115001  0.16555496  0.02442551    -0.17300
C2785       C  0.09533075  0.13949706  0.02333351    -0.27700
C2786       C  0.13593271  0.15359242  0.02484730     0.18400
C2787       C  0.17465662  0.25854318  0.03404494     0.12300
C2788       C  0.09082309  0.23273685  0.02849380    -0.12000
H2789       H  0.04999676  0.15453720  0.02329768     0.12600
C2790       C  0.15374114  0.12765893  0.02467100    -0.22900
H2791       H  0.19212853  0.20408606  0.02906987     0.08300
C2792       C  0.18274923  0.26550124  0.04792776     0.04600
C2793       C  0.21554412  0.30057609  0.05208764    -0.20100
C2794       C  0.24050653  0.32856065  0.04265687    -0.12400
C2795       C  0.23037539  0.32290179  0.02882440     0.13300
C2796       C  0.19780834  0.28750595  0.02467095    -0.22800
C2797       C  0.15793582  0.23507719  0.05827847    -0.05900
H2798       H  0.22290204  0.30517327  0.06271448     0.14800
C2799       C  0.25269148  0.35348261  0.01822135    -0.16100
H2800       H  0.19108544  0.28196980  0.01402453     0.09200
H2801       H  0.16975625  0.13126077  0.03426660     0.07000
H2802       H  0.17481635  0.13642991  0.01620464     0.08200
H2803       H  0.13207852  0.09610497  0.02366166     0.07300
H2804       H  0.10528227  0.25662966  0.02096155     0.02100
H2805       H  0.09668793  0.24569510  0.03873716     0.02600
H2806       H  0.05868255  0.21735635  0.02667774     0.06100
H2807       H  0.16858342  0.24516484  0.06869228     0.05100
H2808       H  0.15863449  0.20777123  0.05648771    -0.00700
H2809       H  0.12719079  0.22853715  0.05757909     0.00800
H2810       H  0.26660791  0.34253563  0.01112926     0.04500
H2811       H  0.27554757  0.38182837  0.02246483     0.06400
H2812       H  0.23206262  0.35945126  0.01251551     0.07300
C2813       C  0.28621582  0.45526347  0.09274635    -0.22300
C2814       C  0.31803750  0.46643089  0.10142247     0.09600
C2815       C  0.34697016  0.45697060  0.09838823     0.10000
C2816       C  0.34401759  0.43737718  0.08634616    -0.17300
C2817       C  0.31255922  0.42677012  0.07741325    -0.27700
C2818       C  0.28291843  0.43541110  0.08074565     0.18400
C2819       C  0.32097798  0.48959176  0.11333746     0.12300
C2820       C  0.38106457  0.46802377  0.10775147    -0.12000
H2821       H  0.36633332  0.43020605  0.08392263     0.12600
C2822       C  0.24855707  0.42534401  0.07159188    -0.22900
H2823       H  0.26420701  0.46279015  0.09531890     0.08300
C2824       C  0.33448554  0.52992615  0.11220315     0.04600
C2825       C  0.33380802  0.55028059  0.12356301    -0.20100
C2826       C  0.32060819  0.53140562  0.13597773    -0.12400
C2827       C  0.30778104  0.49107140  0.13716361     0.13300
C2828       C  0.30784494  0.47051869  0.12573103    -0.22800
C2829       C  0.34941368  0.55135253  0.09902312    -0.05900
H2830       H  0.34260522  0.58072345  0.12266519     0.14800
C2831       C  0.29445423  0.46896854  0.15027840    -0.16100
H2832       H  0.29745344  0.43942399  0.12645990     0.09200
H2833       H  0.23011508  0.43694296  0.07548629     0.07000
H2834       H  0.22948324  0.39307626  0.07079293     0.08200
H2835       H  0.25919909  0.43821209  0.06145775     0.07300
H2836       H  0.37013377  0.45375461  0.11768869     0.02100
H2837       H  0.39795966  0.50029974  0.10911570     0.02600
H2838       H  0.40124146  0.45865069  0.10376369     0.06100
H2839       H  0.35947224  0.58301885  0.10001950     0.05100
H2840       H  0.32578080  0.53873224  0.09132107    -0.00700
H2841       H  0.37455546  0.54863968  0.09550760     0.00800
H2842       H  0.26326475  0.44542232  0.14943059     0.04500
H2843       H  0.29738761  0.48788603  0.15892079     0.06400
H2844       H  0.31246667  0.45540072  0.15254230     0.07300
C2845       C  0.67536010  0.47538661  0.94694598    -0.22300
C2846       C  0.63954355  0.44760970  0.94122028     0.09600
C2847       C  0.60427937  0.43902320  0.94751999     0.10000
C2848       C  0.60561094  0.45785516  0.95961933    -0.17300
C2849       C  0.64146087  0.48521916  0.96572820    -0.27700
C2850       C  0.67697958  0.49443337  0.95908722     0.18400
C2851       C  0.63972263  0.42656667  0.92892575     0.12300
C2852       C  0.56520070  0.40998446  0.94144265    -0.12000
H2853       H  0.57815574  0.45086732  0.96431951     0.12600
C2854       C  0.71682325  0.52336191  0.96468341    -0.22900
H2855       H  0.70226717  0.48170409  0.94194544     0.08300
C2856       C  0.64495687  0.44341657  0.91599891     0.04600
C2857       C  0.64612646  0.42266744  0.90472855    -0.20100
C2858       C  0.64133796  0.38524720  0.90614766    -0.12400
C2859       C  0.63521939  0.36799461  0.91902764     0.13300
C2860       C  0.63475655  0.38903407  0.93031348    -0.22800
C2861       C  0.64872258  0.48292936  0.91411093    -0.05900
H2862       H  0.65053113  0.43551910  0.89476960     0.14800
C2863       C  0.62982399  0.32772471  0.92084949    -0.16100
H2864       H  0.63057946  0.37626347  0.94027550     0.09200
H2865       H  0.72038839  0.55301787  0.96508673     0.07000
H2866       H  0.74087074  0.52554264  0.95830738     0.08200
H2867       H  0.72038169  0.51401708  0.97488513     0.07300
H2868       H  0.56247817  0.38071630  0.94077741     0.02100
H2869       H  0.56269998  0.41976914  0.93118590     0.02600
H2870       H  0.54037930  0.40698900  0.94756555     0.06100
H2871       H  0.65140037  0.49118752  0.90330580     0.05100
H2872       H  0.67512415  0.50563286  0.91949688    -0.00700
H2873       H  0.62232610  0.48237204  0.91817055     0.00800
H2874       H  0.62576162  0.31875278  0.93160590     0.04500
H2875       H  0.65603622  0.32744134  0.91704419     0.06400
H2876       H  0.60356560  0.30585975  0.91517282     0.07300
C2877       C  0.82178676  0.70845118  0.02362228    -0.22300
C2878       C  0.80390203  0.69939754  0.01086083     0.09600
C2879       C  0.81741260  0.72873893  0.00081250     0.10000
C2880       C  0.84858862  0.76623157  0.00377491    -0.17300
C2881       C  0.86623897  0.77552063  0.01656491    -0.27700
C2882       C  0.85321211  0.74611734  0.02656798     0.18400
C2883       C  0.77055114  0.65941361  0.00833264     0.12300
C2884       C  0.79909366  0.72197256  0.98698333    -0.12000
H2885       H  0.85841510  0.78885857  0.99611221     0.12600
C2886       C  0.87258039  0.75298256  0.04019065    -0.22900
H2887       H  0.81148077  0.68580709  0.03127353     0.08300
C2888       C  0.77451136  0.63250813  0.00019592     0.04600
C2889       C  0.74099243  0.59694442  0.99669506    -0.20100
C2890       C  0.70348239  0.58711125  0.00133189    -0.12400
C2891       C  0.70021551  0.61334345  0.01031542     0.13300
C2892       C  0.73382942  0.64918717  0.01357933    -0.22800
C2893       C  0.81412190  0.64137875  0.99520981    -0.05900
H2894       H  0.74422291  0.57679773  0.99021174     0.14800
C2895       C  0.66168222  0.60505405  0.01621915    -0.16100
H2896       H  0.73136417  0.66998438  0.01998789     0.09200
H2897       H  0.88238381  0.73148157  0.04181421     0.07000
H2898       H  0.85125660  0.74897700  0.04816317     0.08200
H2899       H  0.89877981  0.78257925  0.04126200     0.07300
H2900       H  0.77393806  0.69191748  0.98555008     0.02100
H2901       H  0.82142345  0.72733855  0.97922071     0.02600
H2902       H  0.78830135  0.74262752  0.98527907     0.06100
H2903       H  0.81212599  0.61678618  0.98920597     0.05100
H2904       H  0.83382212  0.64653407  0.00393003    -0.00700
H2905       H  0.82726021  0.66784481  0.98873040     0.00800
H2906       H  0.64947559  0.57860497  0.02271441     0.04500
H2907       H  0.64081196  0.60092833  0.00800925     0.06400
H2908       H  0.66501043  0.62954086  0.02262471     0.07300
C2909       C  0.50080069  0.42844279  0.01179784    -0.22300
C2910       C  0.49255783  0.45432206  0.01862819     0.09600
C2911       C  0.52052050  0.49462095  0.01891688     0.10000
C2912       C  0.55621128  0.50831416  0.01221290    -0.17300
C2913       C  0.56464835  0.48271544  0.00514028    -0.27700
C2914       C  0.53648425  0.44204502  0.00499896     0.18400
C2915       C  0.45448750  0.43867960  0.02551854     0.12300
C2916       C  0.51245819  0.52320440  0.02617436    -0.12000
H2917       H  0.57732398  0.53941189  0.01229627     0.12600
C2918       C  0.54392687  0.41256434  0.99807948    -0.22900
H2919       H  0.47906670  0.39745727  0.01176829     0.08300
C2920       C  0.42068603  0.43245241  0.01854764     0.04600
C2921       C  0.38559450  0.41907309  0.02565797    -0.20100
C2922       C  0.38389295  0.41261214  0.03961135    -0.12400
C2923       C  0.41779912  0.41838544  0.04654191     0.13300
C2924       C  0.45265194  0.43115009  0.03935271    -0.22800
C2925       C  0.42193543  0.44064680  0.00368113    -0.05900
H2926       H  0.35961926  0.41462241  0.02036684     0.14800
C2927       C  0.41738157  0.41039840  0.06141189    -0.16100
H2928       H  0.47885391  0.43591077  0.04456153     0.09200
H2929       H  0.54568449  0.41723081  0.98702778     0.07000
H2930       H  0.51995196  0.38203581  0.99995856     0.08200
H2931       H  0.57163412  0.41529058  0.00188665     0.07300
H2932       H  0.50751758  0.51561711  0.03703712     0.02100
H2933       H  0.48597529  0.52204763  0.02183838     0.02600
H2934       H  0.53733407  0.55376435  0.02529095     0.06100
H2935       H  0.39300478  0.43460941  0.99981820     0.05100
H2936       H  0.43043415  0.42186641  0.99807090    -0.00700
H2937       H  0.44370152  0.47190497  0.00167932     0.00800
H2938       H  0.44559435  0.41355691  0.06485773     0.04500
H2939       H  0.39371876  0.38003064  0.06368944     0.06400
H2940       H  0.41274054  0.43157072  0.06722789     0.07300
C2941       C  0.16102480  0.46593461  0.62555086    -0.22300
C2942       C  0.16807005  0.48607038  0.61331023     0.09600
C2943       C  0.19499156  0.52669417  0.61274021     0.10000
C2944       C  0.21475895  0.54635534  0.62448180    -0.17300
C2945       C  0.20830141  0.52618416  0.63668236    -0.27700
C2946       C  0.18074891  0.48555974  0.63732693     0.18400
C2947       C  0.14635407  0.46430363  0.60121095     0.12300
C2948       C  0.20329989  0.54909819  0.59971111    -0.12000
H2949       H  0.23592355  0.57749489  0.62410486     0.12600
C2950       C  0.17070228  0.46233522  0.65024550    -0.22900
H2951       H  0.13983285  0.43480046  0.62591870     0.08300
C2952       C  0.15822623  0.44214607  0.59361627     0.04600
C2953       C  0.13738691  0.42322110  0.58190784    -0.20100
C2954       C  0.10518306  0.42633314  0.57753597    -0.12400
C2955       C  0.09318583  0.44847503  0.58536381     0.13300
C2956       C  0.11393533  0.46693990  0.59713176    -0.22800
C2957       C  0.19327229  0.43910461  0.59775742    -0.05900
H2958       H  0.14683539  0.40649350  0.57601253     0.14800
C2959       C  0.05831558  0.45248305  0.58171068    -0.16100
H2960       H  0.10518301  0.48403960  0.60315516     0.09200
H2961       H  0.17813011  0.43888411  0.64931465     0.07000
H2962       H  0.13878340  0.44856108  0.65221490     0.08200
H2963       H  0.18634774  0.48056708  0.65911635     0.07300
H2964       H  0.17611579  0.54747130  0.59588205     0.02100
H2965       H  0.21421081  0.53638119  0.59211320     0.02600
H2966       H  0.22582824  0.58049139  0.60102103     0.06100
H2967       H  0.19888812  0.42099962  0.59059131     0.05100
H2968       H  0.18826768  0.42539861  0.60787212    -0.00700
H2969       H  0.21977236  0.46878761  0.59810648     0.00800
H2970       H  0.05189332  0.46828042  0.58960359     0.04500
H2971       H  0.03182880  0.42304300  0.58052866     0.06400
H2972       H  0.06421421  0.46960882  0.57227087     0.07300
C2973       C  0.06271880  0.25607820  0.54902179    -0.22300
C2974       C  0.06227115  0.24943758  0.53514908     0.09600
C2975       C  0.06513679  0.27808155  0.52599745     0.10000
C2976       C  0.06718921  0.31224766  0.53094592    -0.17300
C2977       C  0.06712005  0.31890016  0.54485015    -0.27700
C2978       C  0.06563651  0.29062040  0.55403275     0.18400
C2979       C  0.05588372  0.21105654  0.53047677     0.12300
C2980       C  0.06651195  0.27285325  0.51101556    -0.12000
H2981       H  0.06901886  0.33401480  0.52387893     0.12600
C2982       C  0.06557485  0.29558366  0.56908963    -0.22900
H2983       H  0.06002250  0.23366341  0.55596651     0.08300
C2984       C  0.08442351  0.20002671  0.53216820     0.04600
C2985       C  0.07553648  0.16227793  0.52831037    -0.20100
C2986       C  0.03877877  0.13521602  0.52279131    -0.12400
C2987       C  0.01049037  0.14678661  0.52088822     0.13300
C2988       C  0.01949116  0.18448029  0.52479375    -0.22800
C2989       C  0.12416046  0.22796060  0.53805173    -0.05900
H2990       H  0.09712622  0.15352796  0.52991982     0.14800
C2991       C  0.96989692  0.11909969  0.51553607    -0.16100
H2992       H  0.99755832  0.19304974  0.52374465     0.09200
H2993       H  0.06189075  0.26945453  0.57458710     0.07000
H2994       H  0.04102258  0.30002342  0.57200116     0.08200
H2995       H  0.09390115  0.32096830  0.57240044     0.07300
H2996       H  0.03890940  0.24691122  0.50752840     0.02100
H2997       H  0.09160675  0.26879103  0.50858050     0.02600
H2998       H  0.07021418  0.29871740  0.50533376     0.06100
H2999       H  0.14337279  0.21501899  0.53824857     0.05100
H3000       H  0.12108613  0.23553620  0.54855085    -0.00700
H3001       H  0.13877064  0.25510638  0.53189704     0.00800
H3002       H  0.95513569  0.09272782  0.52205850     0.04500
H3003       H  0.97163707  0.11046519  0.50504866     0.06400
H3004       H  0.95131193  0.13273896  0.51535436     0.07300
C3005       C  0.89653060  0.65529614  0.49310879    -0.22300
C3006       C  0.89039491  0.65843660  0.50682434     0.09600
C3007       C  0.87904218  0.62610649  0.51541187     0.10000
C3008       C  0.87519031  0.59149209  0.51013228    -0.17300
C3009       C  0.88230523  0.58846449  0.49645307    -0.27700
C3010       C  0.89323444  0.62092391  0.48780316     0.18400
C3011       C  0.89858152  0.69678923  0.51206356     0.12300
C3012       C  0.87134428  0.62833358  0.53013649    -0.12000
H3013       H  0.86682789  0.56666714  0.51674727     0.12600
C3014       C  0.90405965  0.62166855  0.47320616    -0.22900
H3015       H  0.90560481  0.68050395  0.48660782     0.08300
C3016       C  0.93664166  0.72527234  0.51626207     0.04600
C3017       C  0.94403979  0.76255278  0.52000450    -0.20100
C3018       C  0.91424894  0.77196154  0.51959647    -0.12400
C3019       C  0.87551635  0.74245748  0.51626227     0.13300
C3020       C  0.86830642  0.70533507  0.51234913    -0.22800
C3021       C  0.96966168  0.71666854  0.51639847    -0.05900
H3022       H  0.97370466  0.78508007  0.52256777     0.14800
C3023       C  0.84107506  0.74880333  0.51692691    -0.16100
H3024       H  0.83893463  0.68298223  0.50939966     0.09200
H3025       H  0.93382723  0.64718195  0.47143595     0.07000
H3026       H  0.88282341  0.62472451  0.46672409     0.08200
H3027       H  0.90487766  0.59536793  0.47000628     0.07300
H3028       H  0.84722188  0.63474074  0.53124401     0.02100
H3029       H  0.89812668  0.65192266  0.53508062     0.02600
H3030       H  0.86270412  0.60038132  0.53543880     0.06100
H3031       H  0.99759330  0.74226611  0.51991623     0.05100
H3032       H  0.97433497  0.70904345  0.50608908    -0.00700
H3033       H  0.96239434  0.69173633  0.52326177     0.00800
H3034       H  0.82829931  0.74548373  0.50670744     0.04500
H3035       H  0.84884420  0.77791397  0.52099643     0.06400
H3036       H  0.81837280  0.72650347  0.52367456     0.07300
C3037       C  0.78371535  0.45229482  0.44826578    -0.22300
C3038       C  0.80347960  0.43953638  0.43989260     0.09600
C3039       C  0.84091132  0.44654532  0.44356265     0.10000
C3040       C  0.85783655  0.46619162  0.45563170    -0.17300
C3041       C  0.83835072  0.47932427  0.46405130    -0.27700
C3042       C  0.80066888  0.47210479  0.46036371     0.18400
C3043       C  0.78423481  0.41843497  0.42736711     0.12300
C3044       C  0.86297611  0.43339205  0.43471859    -0.12000
H3045       H  0.88668888  0.47166519  0.45845656     0.12600
C3046       C  0.77757462  0.48368080  0.46933982    -0.22900
H3047       H  0.75477010  0.44637366  0.44535368     0.08300
C3048       C  0.76028549  0.37728713  0.42717111     0.04600
C3049       C  0.74244687  0.35852289  0.41505634    -0.20100
C3050       C  0.74770827  0.38010242  0.40323634    -0.12400
C3051       C  0.77255920  0.42132333  0.40336428     0.13300
C3052       C  0.79034814  0.44000077  0.41550377    -0.22800
C3053       C  0.75303200  0.35334869  0.43978677    -0.05900
H3054       H  0.72329721  0.32696382  0.41489043     0.14800
C3055       C  0.78177116  0.44632254  0.39088760    -0.16100
H3056       H  0.80929242  0.47158703  0.41571675     0.09200
H3057       H  0.74780130  0.47360169  0.46522836     0.07000
H3058       H  0.79277564  0.51603143  0.47027674     0.08200
H3059       H  0.77420693  0.47035392  0.47946291     0.07300
H3060       H  0.86799800  0.44757594  0.42468777     0.02100
H3061       H  0.84584018  0.40111185  0.43343077     0.02600
H3062       H  0.89193106  0.44125273  0.43910093     0.06100
H3063       H  0.73340935  0.32155029  0.43785683     0.05100
H3064       H  0.73902419  0.36251059  0.44749780    -0.00700
H3065       H  0.78117913  0.35776261  0.44383092     0.00800
H3066       H  0.77118121  0.46728838  0.39216116     0.04500
H3067       H  0.76841418  0.42901264  0.38162384     0.06400
H3068       H  0.81399488  0.46313984  0.38931933     0.07300
C3069       C  0.92576038  0.43703653  0.51333642    -0.22300
C3070       C  0.96439052  0.46395026  0.51707627     0.09600
C3071       C  0.98118467  0.50377536  0.51359607     0.10000
C3072       C  0.95839627  0.51603331  0.50662785    -0.17300
C3073       C  0.91971857  0.48908291  0.50274042    -0.27700
C3074       C  0.90320388  0.44899247  0.50607158     0.18400
C3075       C  0.98666900  0.44929500  0.52450298     0.12300
C3076       C  0.02317689  0.53306327  0.51706924    -0.12000
H3077       H  0.97108647  0.54665556  0.50394098     0.12600
C3078       C  0.86166233  0.41883949  0.50233678    -0.22900
H3079       H  0.91336622  0.40647746  0.51606708     0.08300
C3080       C  0.98607915  0.44756336  0.53866674     0.04600
C3081       C  0.00610246  0.43153640  0.54524330    -0.20100
C3082       C  0.02629865  0.41679117  0.53796747    -0.12400
C3083       C  0.02673203  0.41856948  0.52371931     0.13300
C3084       C  0.00692149  0.43497661  0.51717262    -0.22800
C3085       C  0.96399199  0.46222250  0.54679856    -0.05900
H3086       H  0.00550863  0.43002077  0.55614480     0.14800
C3087       C  0.04866655  0.40424647  0.51535012    -0.16100
H3088       H  0.00688167  0.43638668  0.50626555     0.09200
H3089       H  0.85304415  0.38952912  0.50653550     0.07000
H3090       H  0.85859511  0.41576103  0.49122767     0.08200
H3091       H  0.84113887  0.42771770  0.50634340     0.07300
H3092       H  0.04288366  0.52432040  0.51225029     0.02100
H3093       H  0.02745142  0.53424280  0.52814524     0.02600
H3094       H  0.03172918  0.56296978  0.51350768     0.06100
H3095       H  0.96650794  0.45856544  0.55778667     0.05100
H3096       H  0.93244040  0.44565394  0.54403088    -0.00700
H3097       H  0.97580102  0.49382486  0.54476503     0.00800
H3098       H  0.03519145  0.37208969  0.51650933     0.04500
H3099       H  0.07987656  0.41914759  0.51854247     0.06400
H3100       H  0.04780024  0.41032981  0.50446498     0.07300
C3101       C  0.69835043  0.59414242  0.87211750    -0.22300
C3102       C  0.73137687  0.59137420  0.86900976     0.09600
C3103       C  0.76911463  0.62481763  0.87000325     0.10000
C3104       C  0.77303755  0.66037049  0.87434869    -0.17300
C3105       C  0.73999541  0.66323839  0.87742216    -0.27700
C3106       C  0.70212251  0.62969195  0.87631500     0.18400
C3107       C  0.72570204  0.55253183  0.86551830     0.12300
C3108       C  0.80505351  0.62303419  0.86626761    -0.12000
H3109       H  0.80192735  0.68628371  0.87503558     0.12600
C3110       C  0.66518114  0.62997553  0.87979980    -0.22900
H3111       H  0.66945059  0.56819847  0.87145597     0.08300
C3112       C  0.72625441  0.52777128  0.87559571     0.04600
C3113       C  0.71892647  0.49046620  0.87206526    -0.20100
C3114       C  0.71056513  0.47679922  0.85867291    -0.12400
C3115       C  0.71054046  0.50209009  0.84851407     0.13300
C3116       C  0.71819242  0.53972532  0.85210913    -0.22800
C3117       C  0.73379708  0.54043132  0.89014629    -0.05900
H3118       H  0.71863194  0.47143228  0.87998675     0.14800
C3119       C  0.70319691  0.49021933  0.83390102    -0.16100
H3120       H  0.71791387  0.55918181  0.84446363     0.09200
H3121       H  0.64895743  0.60773204  0.88771778     0.07000
H3122       H  0.64627825  0.62253966  0.87071193     0.08200
H3123       H  0.67079833  0.65856929  0.88369883     0.07300
H3124       H  0.80291720  0.61395314  0.85557805     0.02100
H3125       H  0.80757760  0.60154185  0.87274762     0.02600
H3126       H  0.83224813  0.65192313  0.86749361     0.06100
H3127       H  0.73236222  0.51712153  0.89679319     0.05100
H3128       H  0.71151708  0.54756086  0.89364329    -0.00700
H3129       H  0.76333511  0.56676991  0.89125768     0.00800
H3130       H  0.67268549  0.46576339  0.83247523     0.04500
H3131       H  0.72416598  0.48117943  0.83049745     0.06400
H3132       H  0.70704792  0.51471643  0.82735491     0.07300
C3133       C  0.82704017  0.83380433  0.92253966    -0.22300
C3134       C  0.82606700  0.81015325  0.93318672     0.09600
C3135       C  0.80652686  0.76918528  0.93153125     0.10000
C3136       C  0.78891604  0.75280322  0.91908461    -0.17300
C3137       C  0.79000921  0.77636821  0.90823864    -0.27700
C3138       C  0.80940784  0.81766740  0.91008702     0.18400
C3139       C  0.84701841  0.82932328  0.94580630     0.12300
C3140       C  0.80477533  0.74285092  0.94283059    -0.12000
H3141       H  0.77391116  0.72127027  0.91788677     0.12600
C3142       C  0.81315536  0.84544083  0.89900408    -0.22900
H3143       H  0.84217026  0.86528196  0.92398441     0.08300
C3144       C  0.88832072  0.84902044  0.94654258     0.04600
C3145       C  0.90708941  0.86762592  0.95856104    -0.20100
C3146       C  0.88555269  0.86689724  0.96985963    -0.12400
C3147       C  0.84409359  0.84635435  0.96924254     0.13300
C3148       C  0.82537128  0.82824620  0.95712137    -0.22800
C3149       C  0.91258244  0.85000199  0.93471570    -0.05900
H3150       H  0.93884894  0.88316640  0.95912254     0.14800
C3151       C  0.81868322  0.84165793  0.98121109    -0.16100
H3152       H  0.79363100  0.81281347  0.95652291     0.09200
H3153       H  0.82736834  0.84098093  0.89011945     0.07000
H3154       H  0.83146618  0.87656440  0.90211552     0.08200
H3155       H  0.78388537  0.84079270  0.89626387     0.07300
H3156       H  0.78917860  0.74593666  0.95158721     0.02100
H3157       H  0.83494776  0.75093652  0.94593807     0.02600
H3158       H  0.78899107  0.71155379  0.93977227     0.06100
H3159       H  0.94439174  0.86582270  0.93715396     0.05100
H3160       H  0.90809975  0.86514925  0.92607522    -0.00700
H3161       H  0.90383845  0.81962462  0.93172860     0.00800
H3162       H  0.80108607  0.85572769  0.97902769     0.04500
H3163       H  0.83557765  0.85446006  0.99059653     0.06400
H3164       H  0.79841346  0.81001406  0.98316009     0.07300
C3165       C  0.41799880  0.75550188  0.75763891    -0.22300
C3166       C  0.45689664  0.76420379  0.75851942     0.09600
C3167       C  0.47219710  0.75029738  0.74859307     0.10000
C3168       C  0.44803062  0.72776628  0.73791939    -0.17300
C3169       C  0.40898760  0.71909758  0.73690125    -0.27700
C3170       C  0.39375162  0.73326606  0.74693156     0.18400
C3171       C  0.48056969  0.78681641  0.77024558     0.12300
C3172       C  0.51403054  0.75939485  0.74926234    -0.12000
H3173       H  0.45987228  0.71727366  0.73023347     0.12600
C3174       C  0.35181937  0.72427500  0.74674535    -0.22900
H3175       H  0.40660279  0.76616451  0.76542628     0.08300
C3176       C  0.50032582  0.82806895  0.77047916     0.04600
C3177       C  0.52144328  0.84806202  0.78205217    -0.20100
C3178       C  0.52348409  0.82765446  0.79333215    -0.12400
C3179       C  0.50325216  0.78605675  0.79305376     0.13300
C3180       C  0.48201168  0.76627685  0.78149558    -0.22800
C3181       C  0.49921269  0.85088090  0.75849941    -0.05900
H3182       H  0.53693709  0.87981188  0.78221566     0.14800
C3183       C  0.50245049  0.76204763  0.80500426    -0.16100
H3184       H  0.46623982  0.73451691  0.78121285     0.09200
H3185       H  0.34451869  0.73515842  0.75595137     0.07000
H3186       H  0.33149742  0.69210697  0.74620876     0.08200
H3187       H  0.34685863  0.73878726  0.73800960     0.07300
H3188       H  0.51881804  0.74722805  0.75868685     0.02100
H3189       H  0.53419659  0.79161168  0.74910724     0.02600
H3190       H  0.52142770  0.74657438  0.74061700     0.06100
H3191       H  0.51624055  0.88289561  0.76040705     0.05100
H3192       H  0.46846365  0.84264323  0.75624998    -0.00700
H3193       H  0.51188006  0.84446647  0.74957865     0.00800
H3194       H  0.48237665  0.73019575  0.80331620     0.04500
H3195       H  0.49212944  0.77056351  0.81406222     0.06400
H3196       H  0.53201349  0.76638759  0.80689291     0.07300
C3197       C  0.57945912  0.00479076  0.82274729    -0.22300
C3198       C  0.57138135  0.00546223  0.83646030     0.09600
C3199       C  0.56083974  0.97218249  0.84448620     0.10000
C3200       C  0.55965537  0.93925739  0.83870511    -0.17300
C3201       C  0.56865844  0.93874170  0.82505694    -0.27700
C3202       C  0.57866870  0.97201742  0.81694236     0.18400
C3203       C  0.57715094  0.04237728  0.84242733     0.12300
C3204       C  0.55152915  0.97176276  0.85920194    -0.12000
H3205       H  0.55206078  0.91383788  0.84491993     0.12600
C3206       C  0.59090515  0.97513785  0.80241251    -0.22900
H3207       H  0.58797714  0.03066054  0.81665698     0.08300
C3208       C  0.61432523  0.07154492  0.84712746     0.04600
C3209       C  0.61922311  0.10696129  0.85206991    -0.20100
C3210       C  0.58795781  0.11424800  0.85218451    -0.12400
C3211       C  0.55024199  0.08414832  0.84809631     0.13300
C3212       C  0.54530970  0.04851181  0.84328014    -0.22800
C3213       C  0.64908478  0.06569027  0.84655840    -0.05900
H3214       H  0.64820847  0.12999695  0.85508828     0.14800
C3215       C  0.51505827  0.08919152  0.84895180    -0.16100
H3216       H  0.51668446  0.02559920  0.83991189     0.09200
H3217       H  0.62068230  0.00109926  0.80114777     0.07000
H3218       H  0.57007920  0.97886093  0.79593256     0.08200
H3219       H  0.59209523  0.94933984  0.79880047     0.07300
H3220       H  0.52619539  0.97630746  0.86033912     0.02100
H3221       H  0.57725443  0.99551315  0.86456490     0.02600
H3222       H  0.54393876  0.94347656  0.86405092     0.06100
H3223       H  0.67602252  0.09139117  0.85062150     0.05100
H3224       H  0.65480112  0.06124932  0.83595791    -0.00700
H3225       H  0.64310818  0.03960819  0.85259743     0.00800
H3226       H  0.48762706  0.06175346  0.84627877     0.04500
H3227       H  0.51809872  0.11220383  0.84184803     0.06400
H3228       H  0.51202507  0.09729203  0.85939696     0.07300
C3229       C  0.65422964  0.81337627  0.83084486    -0.22300
C3230       C  0.65750645  0.81819320  0.84482485     0.09600
C3231       C  0.64100546  0.83798644  0.85135310     0.10000
C3232       C  0.62025268  0.85147693  0.84374066    -0.17300
C3233       C  0.61573650  0.84570654  0.82972482    -0.27700
C3234       C  0.63373978  0.82701720  0.82315296     0.18400
C3235       C  0.67772656  0.80147167  0.85245177     0.12300
C3236       C  0.64509471  0.84453807  0.86635386    -0.12000
H3237       H  0.60690000  0.86600623  0.84881972     0.12600
C3238       C  0.63287028  0.82239148  0.80805533    -0.22900
H3239       H  0.66760721  0.79856980  0.82595987     0.08300
C3240       C  0.65748361  0.76209653  0.85673931     0.04600
C3241       C  0.67774972  0.74738579  0.86396404    -0.20100
C3242       C  0.71774851  0.77118752  0.86698404    -0.12400
C3243       C  0.73833562  0.81030845  0.86223233     0.13300
C3244       C  0.71783475  0.82510773  0.85517255    -0.22800
C3245       C  0.61442608  0.73583279  0.85383012    -0.05900
H3246       H  0.66207875  0.71737357  0.86754872     0.14800
C3247       C  0.78197664  0.83667253  0.86386134    -0.16100
H3248       H  0.73333184  0.85511929  0.85158112     0.09200
H3249       H  0.60266304  0.80166143  0.80455677     0.07000
H3250       H  0.65157178  0.81047816  0.80473146     0.08200
H3251       H  0.64396661  0.85130384  0.80311790     0.07300
H3252       H  0.67661227  0.86216983  0.86910139     0.02100
H3253       H  0.63176258  0.81593977  0.87166517     0.02600
H3254       H  0.63034471  0.86044535  0.86987800     0.06100
H3255       H  0.60308247  0.70591795  0.85797792     0.05100
H3256       H  0.60936885  0.73325912  0.84277953    -0.00700
H3257       H  0.59757472  0.74830937  0.85842043     0.00800
H3258       H  0.79547488  0.84762156  0.85382459     0.04500
H3259       H  0.79637829  0.82148724  0.86830927     0.06400
H3260       H  0.78812186  0.86209538  0.87028644     0.07300
C3261       C  0.08618268  0.32596611  0.65756482    -0.22300
C3262       C  0.09968817  0.32640138  0.67067521     0.09600
C3263       C  0.08102649  0.29225616  0.67864046     0.10000
C3264       C  0.04813689  0.25866300  0.67347544    -0.17300
C3265       C  0.03409610  0.25832308  0.66043253    -0.27700
C3266       C  0.05371997  0.29217128  0.65228557     0.18400
C3267       C  0.13198678  0.36372629  0.67607174     0.12300
C3268       C  0.09577985  0.29144387  0.69257437    -0.12000
H3269       H  0.03310859  0.23258259  0.67966894     0.12600
C3270       C  0.03956156  0.29333604  0.63827661    -0.22900
H3271       H  0.10076074  0.35244626  0.65154405     0.08300
C3272       C  0.17147483  0.37681884  0.67305824     0.04600
C3273       C  0.20067852  0.41396847  0.67749110    -0.20100
C3274       C  0.19125229  0.43882215  0.68462229    -0.12400
C3275       C  0.15135170  0.42498592  0.68787347     0.13300
C3276       C  0.12242062  0.38744295  0.68365797    -0.22800
C3277       C  0.18260395  0.35191920  0.66489394    -0.05900
H3278       H  0.23096529  0.42424512  0.67490765     0.14800
C3279       C  0.13832473  0.45010762  0.69498477    -0.16100
H3280       H  0.09183514  0.37699911  0.68582424     0.09200
H3281       H  0.04167662  0.27171272  0.63177577     0.07000
H3282       H  0.05737615  0.32266870  0.63357266     0.08200
H3283       H  0.00863320  0.28638868  0.63863532     0.07300
H3284       H  0.09428611  0.31348654  0.69904073     0.02100
H3285       H  0.12665638  0.29829191  0.69202248     0.02600
H3286       H  0.07811340  0.26225646  0.69738725     0.06100
H3287       H  0.21482728  0.36641011  0.66349320     0.05100
H3288       H  0.16869974  0.34634196  0.65478353    -0.00700
H3289       H  0.17251181  0.32352828  0.67008575     0.00800
H3290       H  0.10596529  0.43480719  0.69613311     0.04500
H3291       H  0.14732661  0.47722930  0.68909009     0.06400
H3292       H  0.15127401  0.45761863  0.70524516     0.07300
C3293       C  0.92825074  0.10473219  0.60942968    -0.22300
C3294       C  0.96405959  0.10992835  0.60489603     0.09600
C3295       C  0.99891385  0.13622630  0.61171298     0.10000
C3296       C  0.99711434  0.15629801  0.62306998    -0.17300
C3297       C  0.96119664  0.15061492  0.62795850    -0.27700
C3298       C  0.92617248  0.12454118  0.62086640     0.18400
C3299       C  0.96445196  0.08730913  0.59303950     0.12300
C3300       C  0.03798871  0.14245903  0.60717811    -0.12000
H3301       H  0.02409567  0.17597993  0.62832356     0.12600
C3302       C  0.88648733  0.11765147  0.62496929    -0.22900
H3303       H  0.90169742  0.08474077  0.60400395     0.08300
C3304       C  0.95293086  0.04729160  0.59408034     0.04600
C3305       C  0.95512954  0.02751269  0.58268188    -0.20100
C3306       C  0.96858213  0.04686652  0.57029822    -0.12400
C3307       C  0.97886910  0.08660315  0.56915125     0.13300
C3308       C  0.97699625  0.10639135  0.58058395    -0.22800
C3309       C  0.93900059  0.02569745  0.60725963    -0.05900
H3310       H  0.94681554  0.99692907  0.58346617     0.14800
C3311       C  0.99072798  0.10865211  0.55598442    -0.16100
H3312       H  0.98517771  0.13693157  0.57976659     0.09200
H3313       H  0.86325352  0.09861901  0.61766611     0.07000
H3314       H  0.88711857  0.14599126  0.62545355     0.08200
H3315       H  0.87800352  0.10266826  0.63488119     0.07300
H3316       H  0.04426338  0.15438911  0.59677904     0.02100
H3317       H  0.03749383  0.11415944  0.60738349     0.02600
H3318       H  0.06229256  0.16343992  0.61378789     0.06100
H3319       H  0.93187808  0.99479958  0.60637435     0.05100
H3320       H  0.91215515  0.02550642  0.61059690    -0.00700
H3321       H  0.96222317  0.04033702  0.61503289     0.00800
H3322       H  0.97056397  0.11969041  0.55360290     0.04500
H3323       H  0.98958192  0.09030118  0.54739748     0.06400
H3324       H  0.02104690  0.13399466  0.55681766     0.07300
C3325       C  0.52400112  0.92187262  0.71775925    -0.22300
C3326       C  0.51705790  0.91709536  0.70384124     0.09600
C3327       C  0.54055125  0.94824302  0.69506018     0.10000
C3328       C  0.57178484  0.98293798  0.70034007    -0.17300
C3329       C  0.57995163  0.98737015  0.71422645    -0.27700
C3330       C  0.55515225  0.95671093  0.72309570     0.18400
C3331       C  0.48687571  0.87826047  0.69861881     0.12300
C3332       C  0.53311454  0.94448760  0.68009935    -0.12000
H3333       H  0.59041903  0.00653885  0.69354327     0.12600
C3334       C  0.56245279  0.95958870  0.73806554    -0.22900
H3335       H  0.50568487  0.89770753  0.72441801     0.08300
C3336       C  0.49629905  0.84912099  0.69567375     0.04600
C3337       C  0.46673333  0.81220933  0.69118546    -0.20100
C3338       C  0.42773529  0.80340522  0.68992422    -0.12400
C3339       C  0.41845353  0.83292389  0.69263941     0.13300
C3340       C  0.44831613  0.87017835  0.69684323    -0.22800
C3341       C  0.53738347  0.85670252  0.69761051    -0.05900
H3342       H  0.47373371  0.78945561  0.68931129     0.14800
C3343       C  0.37729079  0.82544580  0.69099203    -0.16100
H3344       H  0.44147323  0.89287764  0.69902980     0.09200
H3345       H  0.54123632  0.93220089  0.74330514     0.07000
H3346       H  0.55918817  0.98367848  0.74232204     0.08200
H3347       H  0.59241443  0.96506874  0.74016935     0.07300
H3348       H  0.50306075  0.93875532  0.67801434     0.02100
H3349       H  0.53595192  0.91988697  0.67608997     0.02600
H3350       H  0.55422976  0.97159789  0.67465921     0.06100
H3351       H  0.53969443  0.83072354  0.69490789     0.05100
H3352       H  0.54628496  0.86399974  0.70831797    -0.00700
H3353       H  0.55802195  0.88154553  0.69115923     0.00800
H3354       H  0.35736677  0.80323789  0.69836894     0.04500
H3355       H  0.36662518  0.81493446  0.68061518     0.06400
H3356       H  0.37591137  0.85245153  0.69269332     0.07300
C3357       C  0.62947667  0.13098147  0.76022482    -0.22300
C3358       C  0.65879113  0.13931994  0.76978592     0.09600
C3359       C  0.68513907  0.12567496  0.76780867     0.10000
C3360       C  0.68198460  0.10446502  0.75608907    -0.17300
C3361       C  0.65245077  0.09582593  0.74651760    -0.27700
C3362       C  0.62580866  0.10920528  0.74862069     0.18400
C3363       C  0.66064569  0.16179722  0.78191446     0.12300
C3364       C  0.71651869  0.13361756  0.77804178    -0.12000
H3365       H  0.70240554  0.09423781  0.75443725     0.12600
C3366       C  0.59432062  0.10177329  0.73848573    -0.22900
H3367       H  0.60935861  0.14157671  0.76189070     0.08300
C3368       C  0.67972500  0.20307065  0.78176543     0.04600
C3369       C  0.67894276  0.22289939  0.79335116    -0.20100
C3370       C  0.65914102  0.20228571  0.80498901    -0.12400
C3371       C  0.64092944  0.16087360  0.80521691     0.13300
C3372       C  0.64166919  0.14119431  0.79360819    -0.22800
C3373       C  0.70053418  0.22604849  0.76935126    -0.05900
H3374       H  0.69298403  0.25458392  0.79322121     0.14800
C3375       C  0.62155973  0.13651213  0.81756344    -0.16100
H3376       H  0.62736447  0.10947744  0.79367247     0.09200
H3377       H  0.60776508  0.11348850  0.72849934     0.07000
H3378       H  0.57756415  0.11616321  0.74143899     0.08200
H3379       H  0.57320562  0.06986940  0.73766896     0.07300
H3380       H  0.70281341  0.12036351  0.78785972     0.02100
H3381       H  0.73599824  0.16570698  0.77933858     0.02600
H3382       H  0.73480228  0.12105234  0.77490489     0.06100
H3383       H  0.71409355  0.25810198  0.77096963     0.05100
H3384       H  0.67940199  0.21753549  0.76086816    -0.00700
H3385       H  0.72407833  0.21993044  0.76657398     0.00800
H3386       H  0.58979410  0.11665914  0.81560284     0.04500
H3387       H  0.62503256  0.15440728  0.82655669     0.06400
H3388       H  0.63500961  0.11848967  0.82002023     0.07300
C3389       C  0.75452008  0.09461908  0.68578900    -0.22300
C3390       C  0.79061737  0.11311873  0.69252491     0.09600
C3391       C  0.79156772  0.11639996  0.70667628     0.10000
C3392       C  0.75620734  0.10138572  0.71377792    -0.17300
C3393       C  0.71976651  0.08253584  0.70709651    -0.27700
C3394       C  0.71902462  0.07888430  0.69284550     0.18400
C3395       C  0.82701446  0.12918090  0.68446416     0.12300
C3396       C  0.82983023  0.13509876  0.71429470    -0.12000
H3397       H  0.75706930  0.10400279  0.72465570     0.12600
C3398       C  0.68134642  0.05953925  0.68485095    -0.22900
H3399       H  0.75422756  0.09250619  0.67489767     0.08300
C3400       C  0.83844423  0.10446649  0.67828324     0.04600
C3401       C  0.87242364  0.12101934  0.67035897    -0.20100
C3402       C  0.89565229  0.16175949  0.66865218    -0.12400
C3403       C  0.88423733  0.18654350  0.67495583     0.13300
C3404       C  0.84985693  0.16981941  0.68269618    -0.22800
C3405       C  0.81516420  0.06070376  0.68022862    -0.05900
H3406       H  0.88119294  0.10203512  0.66559652     0.14800
C3407       C  0.90718601  0.23042979  0.67322311    -0.16100
H3408       H  0.84055240  0.18849523  0.68737161     0.09200
H3409       H  0.66412568  0.02784517  0.68729746     0.07000
H3410       H  0.68682610  0.06191471  0.67382938     0.08200
H3411       H  0.66395037  0.07374061  0.68710396     0.07300
H3412       H  0.84832779  0.16620026  0.71123517     0.02100
H3413       H  0.84563796  0.11920720  0.71211550     0.02600
H3414       H  0.82525167  0.13433284  0.72534806     0.06100
H3415       H  0.82888567  0.04585001  0.67502450     0.05100
H3416       H  0.78513269  0.04873422  0.67610204    -0.00700
H3417       H  0.81334706  0.05369175  0.69113260     0.00800
H3418       H  0.91032424  0.23796093  0.66234366     0.04500
H3419       H  0.93658042  0.24272743  0.67792538     0.06400
H3420       H  0.89240987  0.24470979  0.67810837     0.07300
loop_ 
_geom_bond_atom_site_label_1 
_geom_bond_atom_site_label_2 
_geom_bond_distance 
_geom_bond_site_symmetry_2 
_ccdc_geom_bond_type 
C1            N2   1.360       .  A
C1            N6   1.359       .  A
C1         C3361   1.477       .  S
N2            C3   1.358       .  A
C3            N4   1.357       .  A
C3         C3329   1.483   1_545  S
N4            C5   1.356       .  A
C5            N6   1.359       .  A
C5         C3393   1.488       .  S
C7            N8   1.362       .  A
C7           N12   1.359       .  A
C7         C3297   1.496       .  S
N8            C9   1.359       .  A
C9           N10   1.356       .  A
C9         C3265   1.476   1_655  S
N10          C11   1.356       .  A
C11          N12   1.359       .  A
C11        C3402   1.482       .  S
C13          N14   1.362       .  A
C13          N18   1.359       .  A
C13        C3201   1.480       .  S
N14          C15   1.362       .  A
C15          N16   1.355       .  A
C15        C3178   1.483       .  S
N16          C17   1.354       .  A
C17          N18   1.358       .  A
C17        C3233   1.484       .  S
C19          N20   1.363       .  A
C19          N24   1.359       .  A
C19        C3137   1.493       .  S
N20          C21   1.360       .  A
C21          N22   1.355       .  A
C21        C3105   1.472       .  S
N22          C23   1.355       .  A
C23          N24   1.357       .  A
C23        C3242   1.473       .  S
C25          N26   1.357       .  A
C25          N30   1.360       .  A
C25        C3009   1.476       .  S
N26          C27   1.355       .  A
C27          N28   1.354       .  A
C27        C3073   1.473       .  S
N28          C29   1.356       .  A
C29          N30   1.360       .  A
C29        C3041   1.477       .  S
C31          N32   1.359       .  A
C31          N36   1.353       .  A
C31        C2954   1.484       .  S
N32          C33   1.358       .  A
C33          N34   1.361       .  A
C33        C2977   1.486       .  S
N34          C35   1.358       .  A
C35          N36   1.354       .  A
C35        C3082   1.478       .  S
C37          N38   1.360       .  A
C37          N42   1.359       .  A
C37        C2849   1.499       .  S
N38          C39   1.362       .  A
C39          N40   1.357   1_556  A
C39        C2890   1.495   1_556  S
N40          C41   1.357   1_554  A
C41          N42   1.355       .  A
C41        C2913   1.485   1_556  S
C43          N44   1.353       .  A
C43          N48   1.356       .  A
C43        C2817   1.473       .  S
N44          C45   1.353       .  A
C45          N46   1.359       .  A
C45        C2794   1.472       .  S
N46          C47   1.359       .  A
C47          N48   1.356       .  A
C47        C2922   1.476       .  S
C49          N50   1.360       .  A
C49          N54   1.359   1_655  A
C49        C2689   1.488       .  S
N50          C51   1.359       .  A
C51          N52   1.358       .  A
C51        C2721   1.483       .  S
N52          C53   1.357   1_655  A
C53          N54   1.358       .  A
C53        C2753   1.484       .  S
C55          N56   1.359       .  A
C55          N60   1.359       .  A
C55        C2666   1.476       .  S
N56          C57   1.358       .  A
C57          N58   1.358       .  A
C57        C2625   1.500       .  S
N58          C59   1.356       .  A
C59          N60   1.359       .  A
C59        C2762   1.482       .  S
C61          N62   1.358       .  A
C61          N66   1.358       .  A
C61        C2538   1.475       .  S
N62          C63   1.358       .  A
C63          N64   1.357       .  A
C63        C2570   1.476       .  S
N64          C65   1.356       .  A
C65          N66   1.357       .  A
C65        C2602   1.480       .  S
C67          N68   1.359       .  A
C67          N72   1.358       .  A
C67        C2474   1.484       .  S
N68          C69   1.359       .  A
C69          N70   1.358       .  A
C69        C2497   1.473   1_545  S
N70          C71   1.357       .  A
C71          N72   1.357       .  A
C71        C2593   1.471       .  S
C73          N74   1.361       .  A
C73          N78   1.352       .  A
C73        C2401   1.488       .  S
N74          C75   1.360       .  A
C75          N76   1.359       .  A
C75        C2369   1.475       .  S
N76          C77   1.357       .  A
C77          N78   1.353       .  A
C77        C2433   1.479       .  S
C79          N80   1.359       .  A
C79          N84   1.357       .  A
C79        C2337   1.483       .  S
N80          C81   1.358       .  A
C81          N82   1.355       .  A
C81        C2442   1.477       .  S
N82          C83   1.356       .  A
C83          N84   1.356       .  A
C83        C2305   1.470   1_565  S
C85          N86   1.357       .  A
C85          N90   1.357       .  A
C85        C2241   1.479       .  S
N86          C87   1.356       .  A
C87          N88   1.357       .  A
C87        C2273   1.478       .  S
N88          C89   1.359       .  A
C89          N90   1.358       .  A
C89        C2209   1.479       .  S
C91          N92   1.356       .  A
C91          N96   1.353       .  A
C91        C2145   1.466       .  S
N92          C93   1.359       .  A
C93          N94   1.362       .  A
C93        C2177   1.480       .  S
N94          C95   1.361       .  A
C95          N96   1.353       .  A
C95        C2282   1.486       .  S
C97          N98   1.358       .  A
C97         N102   1.359       .  A
C97        C2081   1.475       .  S
N98          C99   1.359       .  A
C99         N100   1.357       .  A
C99        C2122   1.486       .  S
N100        C101   1.357       .  A
C101        N102   1.358       .  A
C101       C2058   1.475       .  S
C103        N104   1.359       .  A
C103        N108   1.360       .  A
C103       C1994   1.482       .  S
N104        C105   1.357       .  A
C105        N106   1.357       .  A
C105       C2113   1.475       .  S
N106        C107   1.355       .  A
C107        N108   1.358       .  A
C107       C2017   1.470       .  S
C109        N110   1.361       .  A
C109        N114   1.358       .  A
C109       C1921   1.482       .  S
N110        C111   1.361       .  A
C111        N112   1.355       .  A
C111       C1889   1.484       .  S
N112        C113   1.353       .  A
C113        N114   1.355       .  A
C113       C1953   1.466   1_556  S
C115        N116   1.357       .  A
C115        N120   1.356       .  A
C115       C1834   1.471       .  S
N116        C117   1.356       .  A
C117        N118   1.355       .  A
C117       C1962   1.477       .  S
N118        C119   1.354       .  A
C119        N120   1.357       .  A
C119       C1866   1.477       .  S
C121        N122   1.357       .  A
C121        N126   1.360       .  A
C121       C1738   1.487       .  S
N122        C123   1.356       .  A
C123        N124   1.354       .  A
C123       C1770   1.468       .  S
N124        C125   1.356       .  A
C125        N126   1.358       .  A
C125       C1793   1.480       .  S
C127        N128   1.359       .  A
C127        N132   1.360       .  A
C127       C1697   1.490       .  S
N128        C129   1.354       .  A
C129        N130   1.354       .  A
C129       C1802   1.472       .  S
N130        C131   1.355       .  A
C131        N132   1.360       .  A
C131       C1665   1.479       .  S
C133        N134   1.356       .  A
C133        N138   1.363       .  A
C133       C1569   1.493       .  S
N134        C135   1.355       .  A
C135        N136   1.357       .  A
C135       C1642   1.472       .  S
N136        C137   1.359       .  A
C137        N138   1.362       .  A
C137       C1601   1.481       .  S
C139        N140   1.357       .  A
C139        N144   1.360       .  A
C139       C1505   1.478       .  S
N140        C141   1.357       .  A
C141        N142   1.355       .  A
C141       C1633   1.483   1_565  S
N142        C143   1.357       .  A
C143        N144   1.361       .  A
C143       C1537   1.484       .  S
C145        N146   1.352       .  A
C145        N150   1.358       .  A
C145       C1441   1.474       .  S
N146        C147   1.351       .  A
C147        N148   1.356       .  A
C147       C1473   1.469       .  S
N148        C149   1.360       .  A
C149        N150   1.360       .  A
C149       C1409   1.494       .  S
C151        N152   1.354       .  A
C151        N156   1.360       .  A
C151       C1386   1.479       .  S
N152        C153   1.353       .  A
C153        N154   1.356       .  A
C153       C1482   1.474       .  S
N154        C155   1.358       .  A
C155        N156   1.362       .  A
C155       C1345   1.483   1_565  S
C157        N158   1.361       .  A
C157        N162   1.352       .  A
C157       C1281   1.472       .  S
N158        C159   1.362       .  A
C159        N160   1.361       .  A
C159       C1249   1.494       .  S
N160        C161   1.356       .  A
C161        N162   1.352       .  A
C161       C1313   1.470       .  S
C163        N164   1.356   1_565  A
C163        N168   1.360       .  A
C163       C1226   1.484       .  S
N164        C165   1.357       .  A
C165        N166   1.355   1_545  A
C165       C1322   1.482       .  S
N166        C167   1.356       .  A
C167        N168   1.358       .  A
C167       C1194   1.469       .  S
C169        N170   1.362       .  A
C169        N174   1.359       .  A
C169       C1121   1.477       .  S
N170        C171   1.361       .  A
C171        N172   1.356       .  A
C171       C1098   1.478       .  S
N172        C173   1.356       .  A
C173        N174   1.357       .  A
C173       C1153   1.483       .  S
C175        N176   1.357       .  A
C175        N180   1.358       .  A
C175       C1034   1.481       .  S
N176        C177   1.358       .  A
C177        N178   1.360       .  A
C177       C1162   1.479       .  S
N178        C179   1.361       .  A
C179        N180   1.357       .  A
C179       C1066   1.483       .  S
C181        N182   1.353       .  A
C181        N186   1.354       .  A
C181        C929   1.461       .  S
N182        C183   1.354       .  A
C183        N184   1.357       .  A
C183        C993   1.470       .  S
N184        C185   1.360       .  A
C185        N186   1.357       .  A
C185        C961   1.479       .  S
C187        N188   1.361   1_655  A
C187        N192   1.357       .  A
C187        C906   1.486       .  S
N188        C189   1.361       .  A
C189        N190   1.356   1_455  A
C189        C874   1.477       .  S
N190        C191   1.355       .  A
C191        N192   1.355       .  A
C191       C1002   1.475       .  S
C193        N194   1.356       .  A
C193        N198   1.362       .  A
C193        C801   1.486       .  S
N194        C195   1.355       .  A
C195        N196   1.354       .  A
C195        C833   1.480       .  S
N196        C197   1.357       .  A
C197        N198   1.363       .  A
C197        C778   1.485       .  S
C199        N200   1.360       .  A
C199        N204   1.352       .  A
C199        C714   1.477       .  S
N200        C201   1.362       .  A
C201        N202   1.360       .  A
C201        C746   1.484       .  S
N202        C203   1.358       .  A
C203        N204   1.353       .  A
C203        C842   1.472       .  S
C205        N206   1.355       .  A
C205        N210   1.362       .  A
C205        C609   1.490       .  S
N206        C207   1.354       .  A
C207        N208   1.356       .  A
C207        C673   1.471       .  S
N208        C209   1.357       .  A
C209        N210   1.360       .  A
C209        C641   1.472       .  S
C211        N212   1.359       .  A
C211        N216   1.354   1_655  A
C211        C545   1.469       .  S
N212        C213   1.359       .  A
C213        N214   1.360       .  A
C213        C577   1.488       .  S
N214        C215   1.356   1_655  A
C215        N216   1.353       .  A
C215        C682   1.471       .  S
O217        C228   1.290       .  A
O217       Eu253   2.454       .  S
O218        C229   1.294       .  A
O218       Eu252   2.476       .  S
O219        C230   1.289       .  A
O219       Eu225   2.445       .  S
O220        C231   1.291       .  A
O220       Eu225   2.459       .  S
O221        C231   1.288       .  A
O221       Eu255   2.447       .  S
O222        C230   1.289       .  A
O222       Eu254   2.443       .  S
O223        C229   1.289       .  A
O223       Eu225   2.445       .  S
O224        C228   1.291       .  A
O224       Eu225   2.460       .  S
Eu225       O235   2.344       .  S
Eu225       O227   2.347       .  S
Eu225       O226   2.349       .  S
Eu225       O233   2.358       .  S
O226       Eu255   2.354       .  S
O226       Eu252   2.339       .  S
O227       Eu253   2.349       .  S
O227       Eu254   2.355       .  S
C228       C3370   1.474       .  S
C229       C2378   1.483       .  S
C230       C2154   1.469       .  S
C231        C586   1.466       .  S
H232        O233   0.965       .  S
O233       Eu254   2.347       .  S
O233       Eu252   2.356       .  S
H234        O235   0.965       .  S
O235       Eu253   2.351       .  S
O235       Eu255   2.351       .  S
O236        C259   1.291       .  A
O236       Eu252   2.459       .  S
O237        C260   1.291       .  A
O237       Eu253   2.455       .  S
O238        C261   1.293       .  A
O238       Eu254   2.473       .  S
O239        C262   1.291       .  A
O239       Eu255   2.455       .  S
O240        C263   1.294       .  A
O240       Eu255   2.474       .  S
O241        C264   1.290       .  A
O241       Eu254   2.451       .  S
O242        C265   1.295       .  A
O242       Eu256   2.482       .  S
O243        C266   1.286       .  A
O243       Eu256   2.431       .  S
O244        C265   1.286       .  A
O244       Eu254   2.441       .  S
O245        C266   1.292       .  A
O245       Eu255   2.465       .  S
O246        C261   1.289       .  A
O246       Eu252   2.437       .  S
O247        C264   1.290       .  A
O247       Eu253   2.451       .  S
O248        C263   1.289       .  A
O248       Eu253   2.453       .  S
O249        C262   1.293       .  A
O249       Eu252   2.471       .  S
O250        C259   1.290       .  A
O250       Eu256   2.457       .  S
O251        C260   1.289       .  A
O251       Eu256   2.448       .  S
Eu252       O270   2.357       .  S
Eu252       O258   2.358       .  S
Eu253       O257   2.349       .  S
Eu253       O268   2.355       .  S
Eu254       O268   2.348       .  S
Eu254       O258   2.343       .  S
Eu255       O257   2.350       .  S
Eu255       O270   2.354       .  S
Eu256       O257   2.361       .  S
Eu256       O268   2.341       .  S
Eu256       O270   2.362       .  S
Eu256       O258   2.339       .  S
C259       C2858   1.469       .  S
C260       C2314   1.479       .  S
C261       C3114   1.490       .  S
C262        C810   1.480       .  S
C263       C3210   1.484       .  S
C264       C1290   1.467       .  S
C265        C650   1.495       .  S
C266       C1898   1.462       .  S
H267        O268   0.965       .  S
H269        O270   0.966       .  S
O271        C282   1.289       .  A
O271       Eu307   2.448   1_556  S
O272        C283   1.295       .  A
O272       Eu306   2.480       .  S
O273        C284   1.289       .  A
O273       Eu279   2.448       .  S
O274        C285   1.288       .  A
O274       Eu279   2.440   1_546  S
O275        C285   1.289   1_455  A
O275       Eu309   2.442   1_556  S
O276        C284   1.289       .  A
O276       Eu308   2.446       .  S
O277        C283   1.288       .  A
O277       Eu279   2.445   1_545  S
O278        C282   1.291       .  A
O278       Eu279   2.457   1_556  S
Eu279       O289   2.347   1_554  S
Eu279       O281   2.342       .  S
Eu279       O280   2.344   1_565  S
Eu279       O287   2.351       .  S
O280       Eu309   2.340   1_655  S
O280       Eu306   2.343       .  S
O281       Eu307   2.355       .  S
O281       Eu308   2.343       .  S
C282       C3146   1.471       .  S
C283        C769   1.493       .  S
C284       C1825   1.467       .  S
C285        C554   1.470       .  S
H286        O287   0.965       .  S
O287       Eu308   2.358       .  S
O287       Eu306   2.343   1_565  S
H288        O289   0.965       .  S
O289       Eu307   2.345   1_556  S
O289       Eu309   2.346   1_666  S
O290        C313   1.289       .  A
O290       Eu306   2.444   1_455  S
O291        C314   1.292       .  A
O291       Eu307   2.466   1_455  S
O292        C315   1.290       .  A
O292       Eu308   2.451       .  S
O293        C316   1.291       .  A
O293       Eu309   2.455       .  S
O294        C317   1.289       .  A
O294       Eu309   2.449   1_566  S
O295        C318   1.293       .  A
O295       Eu308   2.471       .  S
O296        C319   1.291   1_455  A
O296       Eu310   2.457       .  S
O297        C320   1.294   1_565  A
O297       Eu310   2.481       .  S
O298        C319   1.289       .  A
O298       Eu308   2.448       .  S
O299        C320   1.287       .  A
O299       Eu309   2.438       .  S
O300        C315   1.293       .  A
O300       Eu306   2.468   1_565  S
O301        C318   1.287       .  A
O301       Eu307   2.435       .  S
O302        C317   1.290       .  A
O302       Eu307   2.454   1_456  S
O303        C316   1.288       .  A
O303       Eu306   2.441   1_455  S
O304        C313   1.291   1_565  A
O304       Eu310   2.457       .  S
O305        C314   1.289       .  A
O305       Eu310   2.449       .  S
Eu306       O324   2.366   1_655  S
Eu306       O312   2.350   1_545  S
Eu307       O311   2.345   1_655  S
Eu307       O322   2.350       .  S
Eu308       O322   2.351       .  S
Eu308       O312   2.349       .  S
Eu309       O311   2.349   1_545  S
Eu309       O324   2.353       .  S
Eu310       O311   2.348       .  S
Eu310       O322   2.361   1_455  S
Eu310       O324   2.354   1_565  S
Eu310       O312   2.352   1_455  S
C313       C2529   1.471       .  S
C314        C737   1.475       .  S
C315       C1514   1.474       .  S
C316       C2785   1.466       .  S
C317       C2346   1.469       .  S
C318       C2881   1.473       .  S
C319        C897   1.464       .  S
C320       C1930   1.482       .  S
H321        O322   0.965       .  S
H323        O324   0.966       .  S
O325        C336   1.290       .  A
O325       Eu361   2.454       .  S
O326        C337   1.289       .  A
O326       Eu360   2.452       .  S
O327        C338   1.289       .  A
O327       Eu333   2.445       .  S
O328        C339   1.290       .  A
O328       Eu333   2.453       .  S
O329        C339   1.290       .  A
O329       Eu363   2.453       .  S
O330        C338   1.295       .  A
O330       Eu362   2.480       .  S
O331        C337   1.290       .  A
O331       Eu333   2.458       .  S
O332        C336   1.289       .  A
O332       Eu333   2.448       .  S
Eu333       O343   2.357       .  S
Eu333       O335   2.354       .  S
Eu333       O334   2.347       .  S
Eu333       O341   2.344       .  S
O334       Eu363   2.354       .  S
O334       Eu360   2.347       .  S
O335       Eu361   2.352       .  S
O335       Eu362   2.354       .  S
C336       C3050   1.469       .  S
C337       C1418   1.464       .  S
C338       C2730   1.485       .  S
C339       C2090   1.470       .  S
H340        O341   0.962       .  S
O341       Eu362   2.335       .  S
O341       Eu360   2.353       .  S
H342        O343   0.966       .  S
O343       Eu361   2.353       .  S
O343       Eu363   2.357       .  S
O344        C367   1.294       .  A
O344       Eu360   2.473       .  S
O345        C368   1.290       .  A
O345       Eu361   2.449       .  S
O346        C369   1.295       .  A
O346       Eu362   2.472       .  S
O347        C370   1.287       .  A
O347       Eu363   2.440       .  S
O348        C371   1.294       .  A
O348       Eu363   2.472       .  S
O349        C372   1.291       .  A
O349       Eu362   2.457       .  S
O350        C373   1.295       .  A
O350       Eu364   2.480       .  S
O351        C374   1.292       .  A
O351       Eu364   2.470       .  S
O352        C373   1.290       .  A
O352       Eu362   2.452       .  S
O353        C374   1.292       .  A
O353       Eu363   2.467       .  S
O354        C369   1.283       .  A
O354       Eu360   2.420       .  S
O355        C372   1.292       .  A
O355       Eu361   2.461       .  S
O356        C371   1.289       .  A
O356       Eu361   2.449       .  S
O357        C370   1.293       .  A
O357       Eu360   2.466       .  S
O358        C367   1.289       .  A
O358       Eu364   2.446       .  S
O359        C368   1.290       .  A
O359       Eu364   2.450       .  S
Eu360       O378   2.329       .  S
Eu360       O366   2.355       .  S
Eu361       O365   2.353       .  S
Eu361       O376   2.345       .  S
Eu362       O376   2.357       .  S
Eu362       O366   2.360       .  S
Eu363       O365   2.346       .  S
Eu363       O378   2.354       .  S
Eu364       O365   2.353       .  S
Eu364       O376   2.348       .  S
Eu364       O378   2.355       .  S
Eu364       O366   2.351       .  S
C367       C2465   1.480       .  S
C368       C1354   1.477       .  S
C369        C938   1.489       .  S
C370       C1761   1.482       .  S
C371       C1089   1.487       .  S
C372       C1674   1.479       .  S
C373       C1578   1.479       .  S
C374       C2634   1.473       .  S
H375        O376   0.965       .  S
H377        O378   0.960       .  S
O379        C390   1.287       .  A
O379       Eu415   2.439       .  S
O380        C391   1.292       .  A
O380       Eu414   2.464       .  S
O381        C392   1.291       .  A
O381       Eu387   2.454       .  S
O382        C393   1.292       .  A
O382       Eu387   2.463       .  S
O383        C393   1.288       .  A
O383       Eu417   2.439       .  S
O384        C392   1.288       .  A
O384       Eu416   2.441       .  S
O385        C391   1.291       .  A
O385       Eu387   2.453       .  S
O386        C390   1.295       .  A
O386       Eu387   2.481       .  S
Eu387       O397   2.347       .  S
Eu387       O389   2.343       .  S
Eu387       O388   2.358       .  S
Eu387       O395   2.358       .  S
O388       Eu417   2.353       .  S
O388       Eu414   2.352       .  S
O389       Eu415   2.351       .  S
O389       Eu416   2.341       .  S
C390       C3338   1.480       .  S
C391       C1985   1.477       .  S
C392       C2218   1.470       .  S
C393       C1025   1.470       .  S
H394        O395   0.965       .  S
O395       Eu416   2.352       .  S
O395       Eu414   2.350       .  S
H396        O397   0.965       .  S
O397       Eu415   2.344       .  S
O397       Eu417   2.356       .  S
O398        C421   1.291       .  A
O398       Eu414   2.453       .  S
O399        C422   1.291       .  A
O399       Eu415   2.455       .  S
O400        C423   1.290       .  A
O400       Eu416   2.451       .  S
O401        C424   1.289       .  A
O401       Eu417   2.450       .  S
O402        C425   1.289       .  A
O402       Eu417   2.440       .  S
O403        C426   1.293       .  A
O403       Eu416   2.468       .  S
O404        C427   1.293       .  A
O404       Eu418   2.466       .  S
O405        C428   1.288       .  A
O405       Eu418   2.432       .  S
O406        C427   1.286       .  A
O406       Eu416   2.435       .  S
O407        C428   1.292       .  A
O407       Eu417   2.466       .  S
O408        C423   1.292       .  A
O408       Eu414   2.462       .  S
O409        C426   1.286       .  A
O409       Eu415   2.433       .  S
O410        C425   1.291       .  A
O410       Eu415   2.467       .  S
O411        C424   1.289       .  A
O411       Eu414   2.450       .  S
O412        C421   1.291       .  A
O412       Eu418   2.462       .  S
O413        C422   1.288       .  A
O413       Eu418   2.441       .  S
Eu414       O432   2.354       .  S
Eu414       O420   2.350       .  S
Eu415       O419   2.338       .  S
Eu415       O430   2.357       .  S
Eu416       O430   2.347       .  S
Eu416       O420   2.350       .  S
Eu417       O419   2.341       .  S
Eu417       O432   2.342       .  S
Eu418       O419   2.356       .  S
Eu418       O430   2.347       .  S
Eu418       O432   2.348       .  S
Eu418       O420   2.338       .  S
C421       C3274   1.488       .  S
C422       C2410   1.473       .  S
C423       C1258   1.477       .  S
C424       C2945   1.464       .  S
C425       C1185   1.481       .  S
C426       C3169   1.481       .  S
C427        C618   1.478       .  S
C428       C2186   1.477       .  S
H429        O430   0.966       .  S
H431        O432   0.965       .  S
O433        C444   1.289       .  A
O433       Eu469   2.447       .  S
O434        C445   1.295       .  A
O434       Eu468   2.479       .  S
O435        C446   1.286       .  A
O435       Eu441   2.434       .  S
O436        C447   1.290       .  A
O436       Eu441   2.452       .  S
O437        C447   1.291       .  A
O437       Eu471   2.458       .  S
O438        C446   1.291       .  A
O438       Eu470   2.458       .  S
O439        C445   1.287       .  A
O439       Eu441   2.439       .  S
O440        C444   1.290       .  A
O440       Eu441   2.450       .  S
Eu441       O451   2.346       .  S
Eu441       O443   2.345       .  S
Eu441       O442   2.344       .  S
Eu441       O449   2.352       .  S
O442       Eu471   2.354       .  S
O442       Eu468   2.341       .  S
O443       Eu469   2.353       .  S
O443       Eu470   2.348       .  S
C444       C2826   1.462       .  S
C445       C1546   1.480       .  S
C446       C1857   1.477       .  S
C447        C970   1.478       .  S
H448        O449   0.965       .  S
O449       Eu470   2.348       .  S
O449       Eu468   2.353       .  S
H450        O451   0.965       .  S
O451       Eu469   2.356       .  S
O451       Eu471   2.343       .  S
O452        C475   1.289       .  A
O452       Eu468   2.449       .  S
O453        C476   1.292       .  A
O453       Eu469   2.471       .  S
O454        C477   1.292       .  A
O454       Eu470   2.465       .  S
O455        C478   1.286       .  A
O455       Eu471   2.422       .  S
O456        C479   1.290       .  A
O456       Eu471   2.454       .  S
O457        C480   1.291       .  A
O457       Eu470   2.457       .  S
O458        C481   1.292       .  A
O458       Eu472   2.471       .  S
O459        C482   1.287       .  A
O459       Eu472   2.433       .  S
O460        C481   1.288       .  A
O460       Eu470   2.437       .  S
O461        C482   1.292       .  A
O461       Eu471   2.462       .  S
O462        C477   1.290       .  A
O462       Eu468   2.445       .  S
O463        C480   1.290       .  A
O463       Eu469   2.452       .  S
O464        C479   1.290       .  A
O464       Eu469   2.451       .  S
O465        C478   1.294       .  A
O465       Eu468   2.478       .  S
O466        C475   1.292       .  A
O466       Eu472   2.460       .  S
O467        C476   1.289       .  A
O467       Eu472   2.441       .  S
Eu468       O486   2.352       .  S
Eu468       O474   2.357       .  S
Eu469       O473   2.339       .  S
Eu469       O484   2.353       .  S
Eu470       O484   2.357       .  S
Eu470       O474   2.344       .  S
Eu471       O473   2.340       .  S
Eu471       O486   2.353       .  S
Eu472       O473   2.352       .  S
Eu472       O484   2.349       .  S
Eu472       O486   2.355       .  S
Eu472       O474   2.332       .  S
C475       C2657   1.488       .  S
C476       C1610   1.491       .  S
C477       C2506   1.485       .  S
C478       C1450   1.475       .  S
C479       C2561   1.473       .  S
C480        C705   1.467       .  S
C481        C865   1.484       .  S
C482       C1706   1.469       .  S
H483        O484   0.966       .  S
H485        O486   0.966       .  S
O487        C498   1.294   1_455  A
O487       Eu523   2.473       .  S
O488        C499   1.291       .  A
O488       Eu522   2.466       .  S
O489        C500   1.293   1_565  A
O489       Eu495   2.478       .  S
O490        C501   1.289       .  A
O490       Eu495   2.447       .  S
O491        C501   1.293       .  A
O491       Eu525   2.470       .  S
O492        C500   1.288       .  A
O492       Eu524   2.436       .  S
O493        C499   1.291       .  A
O493       Eu495   2.453       .  S
O494        C498   1.290   1_565  A
O494       Eu495   2.454       .  S
Eu495       O505   2.366       .  S
Eu495       O497   2.345   1_565  S
Eu495       O496   2.352       .  S
Eu495       O503   2.346       .  S
O496       Eu525   2.349       .  S
O496       Eu522   2.349       .  S
O497       Eu523   2.354   1_655  S
O497       Eu524   2.342       .  S
C498       C3306   1.475       .  S
C499       C2026   1.499       .  S
C500       C1130   1.493       .  S
C501       C2250   1.478       .  S
H502        O503   0.965       .  S
O503       Eu524   2.358   1_565  S
O503       Eu522   2.349       .  S
H504        O505   0.965       .  S
O505       Eu523   2.361   1_665  S
O505       Eu525   2.357       .  S
O506        C529   1.290       .  A
O506       Eu522   2.450       .  S
O507        C530   1.296       .  A
O507       Eu523   2.489       .  S
O508        C531   1.289       .  A
O508       Eu524   2.446   1_565  S
O509        C532   1.292       .  A
O509       Eu525   2.463       .  S
O510        C533   1.291       .  A
O510       Eu525   2.459   1_455  S
O511        C534   1.292       .  A
O511       Eu524   2.468   1_455  S
O512        C535   1.290       .  A
O512       Eu526   2.451   1_545  S
O513        C536   1.291       .  A
O513       Eu526   2.463       .  S
O514        C535   1.289       .  A
O514       Eu524   2.450   1_455  S
O515        C536   1.291       .  A
O515       Eu525   2.452   1_455  S
O516        C531   1.292       .  A
O516       Eu522   2.462       .  S
O517        C534   1.289       .  A
O517       Eu523   2.444       .  S
O518        C533   1.291   1_545  A
O518       Eu523   2.456       .  S
O519        C532   1.290       .  A
O519       Eu522   2.453       .  S
O520        C529   1.290   1_455  A
O520       Eu526   2.456       .  S
O521        C530   1.290       .  A
O521       Eu526   2.447   1_545  S
Eu522       O540   2.355       .  S
Eu522       O528   2.353       .  S
Eu523       O527   2.351   1_545  S
Eu523       O538   2.351       .  S
Eu524       O538   2.342   1_655  S
Eu524       O528   2.348   1_545  S
Eu525       O527   2.355   1_655  S
Eu525       O540   2.357       .  S
Eu526       O527   2.353       .  S
Eu526       O538   2.357   1_565  S
Eu526       O540   2.348   1_455  S
Eu526       O528   2.347   1_455  S
C529       C2698   1.469       .  S
C530       C2049   1.493       .  S
C531       C1377   1.469       .  S
C532       C3018   1.477       .  S
C533       C1217   1.474       .  S
C534       C2986   1.486       .  S
C535       C1729   1.475       .  S
C536       C1057   1.487       .  S
H537        O538   0.966       .  S
H539        O540   0.964       .  S
C541        C542   1.400       .  A
C541        C546   1.399       .  A
C541        H551   1.085       .  S
C542        C547   1.472       .  S
C542        C543   1.409   1_655  A
C543        C544   1.399       .  A
C543        C548   1.507       .  S
C544        C545   1.404   1_455  A
C544        H549   1.084       .  S
C545        C546   1.414       .  A
C546        C550   1.506       .  S
C547        C552   1.409   1_655  A
C547        C556   1.400       .  A
C548        H564   1.110       .  S
C548        H565   1.110       .  S
C548        H566   1.111       .  S
C550        H561   1.111       .  S
C550        H562   1.110       .  S
C550        H563   1.106       .  S
C552        C553   1.398       .  A
C552        C557   1.507       .  S
C553        C554   1.403   1_455  A
C553        H558   1.084       .  S
C554        C555   1.415       .  A
C555        C556   1.400       .  A
C555        C559   1.509   1_545  S
C556        H560   1.084       .  S
C557        H567   1.111       .  S
C557        H568   1.110       .  S
C557        H569   1.110       .  S
C559        H570   1.109       .  S
C559        H571   1.111       .  S
C559        H572   1.111       .  S
C573        C574   1.398       .  A
C573        C578   1.404       .  A
C573        H583   1.084       .  S
C574        C579   1.474       .  S
C574        C575   1.406       .  A
C575        C576   1.400       .  A
C575        C580   1.507       .  S
C576        C577   1.409       .  A
C576        H581   1.084       .  S
C577        C578   1.422       .  A
C578        C582   1.507       .  S
C579        C584   1.410       .  A
C579        C588   1.397       .  A
C580        H596   1.110       .  S
C580        H597   1.110       .  S
C580        H598   1.111       .  S
C582        H593   1.109       .  S
C582        H594   1.111       .  S
C582        H595   1.109       .  S
C584        C585   1.405       .  A
C584        C589   1.505       .  S
C585        C586   1.403       .  A
C585        H590   1.084       .  S
C586        C587   1.415       .  A
C587        C588   1.397       .  A
C587        C591   1.508       .  S
C588        H592   1.085       .  S
C589        H599   1.111       .  S
C589        H600   1.110       .  S
C589        H601   1.110       .  S
C591        H602   1.109       .  S
C591        H603   1.107       .  S
C591        H604   1.109       .  S
C605        C606   1.397       .  A
C605        C610   1.403       .  A
C605        H615   1.084       .  S
C606        C611   1.477       .  S
C606        C607   1.408       .  A
C607        C608   1.403       .  A
C607        C612   1.507       .  S
C608        C609   1.409       .  A
C608        H613   1.084       .  S
C609        C610   1.424       .  A
C610        C614   1.509       .  S
C611        C616   1.409       .  A
C611        C620   1.399       .  A
C612        H628   1.110       .  S
C612        H629   1.110       .  S
C612        H630   1.111       .  S
C614        H625   1.110       .  S
C614        H626   1.111       .  S
C614        H627   1.110       .  S
C616        C617   1.402       .  A
C616        C621   1.506       .  S
C617        C618   1.404       .  A
C617        H622   1.084       .  S
C618        C619   1.419       .  A
C619        C620   1.402       .  A
C619        C623   1.510       .  S
C620        H624   1.084       .  S
C621        H631   1.111       .  S
C621        H632   1.110       .  S
C621        H633   1.110       .  S
C623        H634   1.111       .  S
C623        H635   1.111       .  S
C623        H636   1.109       .  S
C637        C638   1.402       .  A
C637        C642   1.404       .  A
C637        H647   1.084       .  S
C638        C643   1.482       .  S
C638        C639   1.411       .  A
C639        C640   1.405       .  A
C639        C644   1.506       .  S
C640        C641   1.402       .  A
C640        H645   1.084       .  S
C641        C642   1.411       .  A
C642        C646   1.507       .  S
C643        C648   1.408       .  A
C643        C652   1.398       .  A
C644        H660   1.110       .  S
C644        H661   1.110       .  S
C644        H662   1.111       .  S
C646        H657   1.111       .  S
C646        H658   1.110       .  S
C646        H659   1.111       .  S
C648        C649   1.404       .  A
C648        C653   1.507       .  S
C649        C650   1.407       .  A
C649        H654   1.080       .  S
C650        C651   1.425       .  A
C651        C652   1.406       .  A
C651        C655   1.509       .  S
C652        H656   1.084       .  S
C653        H663   1.109       .  S
C653        H664   1.110       .  S
C653        H665   1.110       .  S
C655        H666   1.109       .  S
C655        H667   1.111       .  S
C655        H668   1.111       .  S
C669        C670   1.400       .  A
C669        C674   1.401       .  A
C669        H679   1.085       .  S
C670        C675   1.474       .  S
C670        C671   1.408       .  A
C671        C672   1.401       .  A
C671        C676   1.506       .  S
C672        C673   1.404       .  A
C672        H677   1.084       .  S
C673        C674   1.416       .  A
C674        C678   1.509       .  S
C675        C680   1.410       .  A
C675        C684   1.399       .  A
C676        H692   1.110       .  S
C676        H693   1.110       .  S
C676        H694   1.111       .  S
C678        H689   1.111       .  S
C678        H690   1.110       .  S
C678        H691   1.106       .  S
C680        C681   1.401       .  A
C680        C685   1.507       .  S
C681        C682   1.403       .  A
C681        H686   1.084       .  S
C682        C683   1.415       .  A
C683        C684   1.401       .  A
C683        C687   1.508       .  S
C684        H688   1.084       .  S
C685        H695   1.111       .  S
C685        H696   1.110       .  S
C685        H697   1.110       .  S
C687        H698   1.109       .  S
C687        H699   1.111       .  S
C687        H700   1.111       .  S
C701        C702   1.400       .  A
C701        C706   1.401       .  A
C701        H711   1.085       .  S
C702        C707   1.475       .  S
C702        C703   1.409       .  A
C703        C704   1.402       .  A
C703        C708   1.506       .  S
C704        C705   1.402       .  A
C704        H709   1.084       .  S
C705        C706   1.415       .  A
C706        C710   1.509       .  S
C707        C712   1.410       .  A
C707        C716   1.398       .  A
C708        H724   1.110       .  S
C708        H725   1.110       .  S
C708        H726   1.109       .  S
C710        H721   1.110       .  S
C710        H722   1.111       .  S
C710        H723   1.107       .  S
C712        C713   1.402       .  A
C712        C717   1.506       .  S
C713        C714   1.403       .  A
C713        H718   1.084       .  S
C714        C715   1.419       .  A
C715        C716   1.402       .  A
C715        C719   1.508       .  S
C716        H720   1.084       .  S
C717        H727   1.111       .  S
C717        H728   1.110       .  S
C717        H729   1.110       .  S
C719        H730   1.109       .  S
C719        H731   1.110       .  S
C719        H732   1.111       .  S
C733        C734   1.399       .  A
C733        C738   1.399       .  A
C733        H743   1.085       .  S
C734        C739   1.479       .  S
C734        C735   1.410       .  A
C735        C736   1.405       .  A
C735        C740   1.506       .  S
C736        C737   1.406       .  A
C736        H741   1.084       .  S
C737        C738   1.418       .  A
C738        C742   1.511   1_455  S
C739        C744   1.411       .  A
C739        C748   1.398       .  A
C740        H756   1.110       .  S
C740        H757   1.110       .  S
C740        H758   1.111       .  S
C742        H753   1.110       .  S
C742        H754   1.110       .  S
C742        H755   1.104       .  S
C744        C745   1.403       .  A
C744        C749   1.507       .  S
C745        C746   1.406       .  A
C745        H750   1.084       .  S
C746        C747   1.418       .  A
C747        C748   1.404       .  A
C747        C751   1.505       .  S
C748        H752   1.084       .  S
C749        H759   1.111       .  S
C749        H760   1.110       .  S
C749        H761   1.110       .  S
C751        H762   1.108       .  S
C751        H763   1.110       .  S
C751        H764   1.111       .  S
C765        C766   1.394   1_556  A
C765        C770   1.398   1_556  A
C765        H775   1.085       .  S
C766        C771   1.480       .  S
C766        C767   1.411       .  A
C767        C768   1.410       .  A
C767        C772   1.505       .  S
C768        C769   1.409       .  A
C768        H773   1.084       .  S
C769        C770   1.425       .  A
C770        C774   1.506   1_554  S
C771        C776   1.410       .  A
C771        C780   1.402       .  A
C772        H788   1.110       .  S
C772        H789   1.109       .  S
C772        H790   1.111       .  S
C774        H785   1.111       .  S
C774        H786   1.109       .  S
C774        H787   1.106       .  S
C776        C777   1.402   1_554  A
C776        C781   1.509       .  S
C777        C778   1.406       .  A
C777        H782   1.084       .  S
C778        C779   1.417       .  A
C779        C780   1.407   1_556  A
C779        C783   1.507       .  S
C780        H784   1.084       .  S
C781        H791   1.111   1_655  S
C781        H792   1.110       .  S
C781        H793   1.109       .  S
C783        H794   1.109       .  S
C783        H795   1.110       .  S
C783        H796   1.111       .  S
C797        C798   1.402       .  A
C797        C802   1.407       .  A
C797        H807   1.084       .  S
C798        C803   1.482       .  S
C798        C799   1.408       .  A
C799        C800   1.402       .  A
C799        C804   1.507       .  S
C800        C801   1.408       .  A
C800        H805   1.084       .  S
C801        C802   1.417       .  A
C802        C806   1.507       .  S
C803        C808   1.412       .  A
C803        C812   1.399       .  A
C804        H820   1.110       .  S
C804        H821   1.110       .  S
C804        H822   1.111       .  S
C806        H817   1.111       .  S
C806        H818   1.109       .  S
C806        H819   1.110       .  S
C808        C809   1.407       .  A
C808        C813   1.506       .  S
C809        C810   1.404       .  A
C809        H814   1.083       .  S
C810        C811   1.417       .  A
C811        C812   1.402       .  A
C811        C815   1.507       .  S
C812        H816   1.085       .  S
C813        H823   1.111       .  S
C813        H824   1.110       .  S
C813        H825   1.110       .  S
C815        H826   1.110       .  S
C815        H827   1.107       .  S
C815        H828   1.111       .  S
C829        C830   1.399       .  A
C829        C834   1.403   1_455  A
C829        H839   1.084       .  S
C830        C835   1.472       .  S
C830        C831   1.406   1_455  A
C831        C832   1.399   1_554  A
C831        C836   1.507       .  S
C832        C833   1.407       .  A
C832        H837   1.084       .  S
C833        C834   1.419   1_556  A
C834        C838   1.508   1_655  S
C835        C840   1.408       .  A
C835        C844   1.400       .  A
C836        H852   1.110   1_554  S
C836        H853   1.110       .  S
C836        H854   1.111   1_554  S
C838        H849   1.109   1_455  S
C838        H850   1.111       .  S
C838        H851   1.110   1_554  S
C840        C841   1.398       .  A
C840        C845   1.507   1_455  S
C841        C842   1.404       .  A
C841        H846   1.084       .  S
C842        C843   1.416       .  A
C843        C844   1.402       .  A
C843        C847   1.506       .  S
C844        H848   1.084   1_554  S
C845        H855   1.111       .  S
C845        H856   1.110   1_655  S
C845        H857   1.110       .  S
C847        H858   1.111       .  S
C847        H859   1.106       .  S
C847        H860   1.110       .  S
C861        C862   1.402       .  A
C861        C866   1.407       .  A
C861        H871   1.084       .  S
C862        C867   1.478       .  S
C862        C863   1.407       .  A
C863        C864   1.399       .  A
C863        C868   1.507       .  S
C864        C865   1.408       .  A
C864        H869   1.084       .  S
C865        C866   1.418       .  A
C866        C870   1.508       .  S
C867        C872   1.409       .  A
C867        C876   1.401       .  A
C868        H884   1.110       .  S
C868        H885   1.110       .  S
C868        H886   1.110       .  S
C870        H881   1.111       .  S
C870        H882   1.111       .  S
C870        H883   1.109       .  S
C872        C873   1.400       .  A
C872        C877   1.507       .  S
C873        C874   1.404       .  A
C873        H878   1.084       .  S
C874        C875   1.417       .  A
C875        C876   1.404       .  A
C875        C879   1.506       .  S
C876        H880   1.084       .  S
C877        H887   1.111       .  S
C877        H888   1.110       .  S
C877        H889   1.110       .  S
C879        H890   1.110       .  S
C879        H891   1.106       .  S
C879        H892   1.110       .  S
C893        C894   1.401       .  A
C893        C898   1.401       .  A
C893        H903   1.085       .  S
C894        C899   1.475       .  S
C894        C895   1.411       .  A
C895        C896   1.401       .  A
C895        C900   1.506       .  S
C896        C897   1.401       .  A
C896        H901   1.085       .  S
C897        C898   1.413       .  A
C898        C902   1.507       .  S
C899        C904   1.407       .  A
C899        C908   1.399   1_655  A
C900        H916   1.110       .  S
C900        H917   1.110       .  S
C900        H918   1.111       .  S
C902        H913   1.110       .  S
C902        H914   1.110   1_655  S
C902        H915   1.108       .  S
C904        C905   1.401       .  A
C904        C909   1.507       .  S
C905        C906   1.410       .  A
C905        H910   1.084       .  S
C906        C907   1.419   1_655  A
C907        C908   1.403       .  A
C907        C911   1.505       .  S
C908        H912   1.084       .  S
C909        H919   1.111       .  S
C909        H920   1.110       .  S
C909        H921   1.110       .  S
C911        H922   1.109       .  S
C911        H923   1.110       .  S
C911        H924   1.111       .  S
C925        C926   1.401       .  A
C925        C930   1.398       .  A
C925        H935   1.085       .  S
C926        C931   1.473       .  S
C926        C927   1.411       .  A
C927        C928   1.400       .  A
C927        C932   1.507       .  S
C928        C929   1.400       .  A
C928        H933   1.084       .  S
C929        C930   1.413       .  A
C930        C934   1.508       .  S
C931        C936   1.407       .  A
C931        C940   1.395       .  A
C932        H948   1.109       .  S
C932        H949   1.110       .  S
C932        H950   1.111       .  S
C934        H945   1.110       .  S
C934        H946   1.111       .  S
C934        H947   1.107       .  S
C936        C937   1.401       .  A
C936        C941   1.507       .  S
C937        C938   1.409       .  A
C937        H942   1.083       .  S
C938        C939   1.428       .  A
C939        C940   1.399       .  A
C939        C943   1.512       .  S
C940        H944   1.085       .  S
C941        H951   1.111       .  S
C941        H952   1.110       .  S
C941        H953   1.110       .  S
C943        H954   1.111       .  S
C943        H955   1.109       .  S
C943        H956   1.108       .  S
C957        C958   1.400       .  A
C957        C962   1.403       .  A
C957        H967   1.084       .  S
C958        C963   1.477       .  S
C958        C959   1.409       .  A
C959        C960   1.401       .  A
C959        C964   1.506       .  S
C960        C961   1.405       .  A
C960        H965   1.084       .  S
C961        C962   1.419       .  A
C962        C966   1.509       .  S
C963        C968   1.410       .  A
C963        C972   1.399       .  A
C964        H980   1.110       .  S
C964        H981   1.110       .  S
C964        H982   1.111       .  S
C966        H977   1.109       .  S
C966        H978   1.111       .  S
C966        H979   1.111       .  S
C968        C969   1.404       .  A
C968        C973   1.506       .  S
C969        C970   1.404       .  A
C969        H974   1.081       .  S
C970        C971   1.418       .  A
C971        C972   1.400       .  A
C971        C975   1.509       .  S
C972        H976   1.084       .  S
C973        H983   1.111       .  S
C973        H984   1.110       .  S
C973        H985   1.110       .  S
C975        H986   1.111       .  S
C975        H987   1.111       .  S
C975        H988   1.109       .  S
C989        C990   1.398       .  A
C989        C994   1.399       .  A
C989        H999   1.084       .  S
C990        C995   1.470       .  S
C990        C991   1.409       .  A
C991        C992   1.402       .  A
C991        C996   1.507       .  S
C992        C993   1.403       .  A
C992        H997   1.084       .  S
C993        C994   1.415       .  A
C994        C998   1.507       .  S
C995       C1000   1.407       .  A
C995       C1004   1.398       .  A
C996       H1012   1.110       .  S
C996       H1013   1.110       .  S
C996       H1014   1.111       .  S
C998       H1009   1.111       .  S
C998       H1010   1.109       .  S
C998       H1011   1.110       .  S
C1000      C1001   1.400       .  A
C1000      C1005   1.506       .  S
C1001      C1002   1.406       .  A
C1001      H1006   1.084       .  S
C1002      C1003   1.417       .  A
C1003      C1004   1.400       .  A
C1003      C1007   1.508       .  S
C1004      H1008   1.084       .  S
C1005      H1015   1.111       .  S
C1005      H1016   1.110       .  S
C1005      H1017   1.110       .  S
C1007      H1018   1.109       .  S
C1007      H1019   1.110       .  S
C1007      H1020   1.111       .  S
C1021      C1022   1.400       .  A
C1021      C1026   1.401       .  A
C1021      H1031   1.085       .  S
C1022      C1027   1.474       .  S
C1022      C1023   1.409       .  A
C1023      C1024   1.400       .  A
C1023      C1028   1.507       .  S
C1024      C1025   1.404       .  A
C1024      H1029   1.085       .  S
C1025      C1026   1.416       .  A
C1026      C1030   1.509       .  S
C1027      C1032   1.409       .  A
C1027      C1036   1.398       .  A
C1028      H1044   1.110       .  S
C1028      H1045   1.110       .  S
C1028      H1046   1.111       .  S
C1030      H1041   1.111       .  S
C1030      H1042   1.110       .  S
C1030      H1043   1.106       .  S
C1032      C1033   1.402       .  A
C1032      C1037   1.507       .  S
C1033      C1034   1.407       .  A
C1033      H1038   1.083       .  S
C1034      C1035   1.418       .  A
C1035      C1036   1.400       .  A
C1035      C1039   1.505       .  S
C1036      H1040   1.084       .  S
C1037      H1047   1.111       .  S
C1037      H1048   1.110       .  S
C1037      H1049   1.110       .  S
C1039      H1050   1.111       .  S
C1039      H1051   1.108       .  S
C1039      H1052   1.110       .  S
C1053      C1054   1.399       .  A
C1053      C1058   1.401       .  A
C1053      H1063   1.084       .  S
C1054      C1059   1.483       .  S
C1054      C1055   1.411       .  A
C1055      C1056   1.406       .  A
C1055      C1060   1.506       .  S
C1056      C1057   1.408       .  A
C1056      H1061   1.084       .  S
C1057      C1058   1.418       .  A
C1058      C1062   1.505       .  S
C1059      C1064   1.412       .  A
C1059      C1068   1.401       .  A
C1060      H1076   1.109       .  S
C1060      H1077   1.110       .  S
C1060      H1078   1.111       .  S
C1062      H1073   1.110       .  S
C1062      H1074   1.111       .  S
C1062      H1075   1.110       .  S
C1064      C1065   1.404       .  A
C1064      C1069   1.507       .  S
C1065      C1066   1.405       .  A
C1065      H1070   1.084       .  S
C1066      C1067   1.418       .  A
C1067      C1068   1.404       .  A
C1067      C1071   1.508       .  S
C1068      H1072   1.084       .  S
C1069      H1079   1.111       .  S
C1069      H1080   1.109       .  S
C1069      H1081   1.110       .  S
C1071      H1082   1.111       .  S
C1071      H1083   1.110       .  S
C1071      H1084   1.109       .  S
C1085      C1086   1.399       .  A
C1085      C1090   1.404       .  A
C1085      H1095   1.084       .  S
C1086      C1091   1.482       .  S
C1086      C1087   1.411       .  A
C1087      C1088   1.406       .  A
C1087      C1092   1.506       .  S
C1088      C1089   1.407       .  A
C1088      H1093   1.084       .  S
C1089      C1090   1.421       .  A
C1090      C1094   1.509       .  S
C1091      C1096   1.410       .  A
C1091      C1100   1.403       .  A
C1092      H1108   1.110       .  S
C1092      H1109   1.110       .  S
C1092      H1110   1.111       .  S
C1094      H1105   1.110       .  S
C1094      H1106   1.110       .  S
C1094      H1107   1.109       .  S
C1096      C1097   1.404       .  A
C1096      C1101   1.506       .  S
C1097      C1098   1.405       .  A
C1097      H1102   1.084       .  S
C1098      C1099   1.413       .  A
C1099      C1100   1.406       .  A
C1099      C1103   1.506       .  S
C1100      H1104   1.084       .  S
C1101      H1111   1.111       .  S
C1101      H1112   1.110       .  S
C1101      H1113   1.110       .  S
C1103      H1114   1.111       .  S
C1103      H1115   1.110       .  S
C1103      H1116   1.110       .  S
C1117      C1118   1.402       .  A
C1117      C1122   1.406       .  A
C1117      H1127   1.084       .  S
C1118      C1123   1.480       .  S
C1118      C1119   1.410       .  A
C1119      C1120   1.401       .  A
C1119      C1124   1.507   1_545  S
C1120      C1121   1.403       .  A
C1120      H1125   1.084   1_545  S
C1121      C1122   1.416       .  A
C1122      C1126   1.506       .  S
C1123      C1128   1.406       .  A
C1123      C1132   1.401       .  A
C1124      H1140   1.110       .  S
C1124      H1141   1.110       .  S
C1124      H1142   1.111       .  S
C1126      H1137   1.110       .  S
C1126      H1138   1.111       .  S
C1126      H1139   1.107       .  S
C1128      C1129   1.400       .  A
C1128      C1133   1.508       .  S
C1129      C1130   1.411       .  A
C1129      H1134   1.084       .  S
C1130      C1131   1.421       .  A
C1131      C1132   1.408       .  A
C1131      C1135   1.508       .  S
C1132      H1136   1.084       .  S
C1133      H1143   1.111       .  S
C1133      H1144   1.110       .  S
C1133      H1145   1.110       .  S
C1135      H1146   1.111       .  S
C1135      H1147   1.109   1_545  S
C1135      H1148   1.111       .  S
C1149      C1150   1.399       .  A
C1149      C1154   1.403       .  A
C1149      H1159   1.084       .  S
C1150      C1155   1.479       .  S
C1150      C1151   1.409       .  A
C1151      C1152   1.404   1_565  A
C1151      C1156   1.506       .  S
C1152      C1153   1.407       .  A
C1152      H1157   1.084       .  S
C1153      C1154   1.419   1_545  A
C1154      C1158   1.508       .  S
C1155      C1160   1.410       .  A
C1155      C1164   1.399       .  A
C1156      H1172   1.110       .  S
C1156      H1173   1.110       .  S
C1156      H1174   1.111       .  S
C1158      H1169   1.109   1_565  S
C1158      H1170   1.111       .  S
C1158      H1171   1.111       .  S
C1160      C1161   1.405       .  A
C1160      C1165   1.506       .  S
C1161      C1162   1.405       .  A
C1161      H1166   1.084       .  S
C1162      C1163   1.417       .  A
C1163      C1164   1.402       .  A
C1163      C1167   1.506       .  S
C1164      H1168   1.085       .  S
C1165      H1175   1.111   1_565  S
C1165      H1176   1.110   1_565  S
C1165      H1177   1.110   1_565  S
C1167      H1178   1.110       .  S
C1167      H1179   1.106       .  S
C1167      H1180   1.110       .  S
C1181      C1182   1.403       .  A
C1181      C1186   1.407       .  A
C1181      H1191   1.084       .  S
C1182      C1187   1.477       .  S
C1182      C1183   1.408       .  A
C1183      C1184   1.397       .  A
C1183      C1188   1.509       .  S
C1184      C1185   1.407       .  A
C1184      H1189   1.084       .  S
C1185      C1186   1.416       .  A
C1186      C1190   1.507       .  S
C1187      C1192   1.410       .  A
C1187      C1196   1.400       .  A
C1188      H1204   1.110       .  S
C1188      H1205   1.110       .  S
C1188      H1206   1.111       .  S
C1190      H1201   1.111       .  S
C1190      H1202   1.109       .  S
C1190      H1203   1.111       .  S
C1192      C1193   1.404       .  A
C1192      C1197   1.505       .  S
C1193      C1194   1.403       .  A
C1193      H1198   1.084       .  S
C1194      C1195   1.414       .  A
C1195      C1196   1.398       .  A
C1195      C1199   1.508       .  S
C1196      H1200   1.085       .  S
C1197      H1207   1.111       .  S
C1197      H1208   1.110       .  S
C1197      H1209   1.110       .  S
C1199      H1210   1.110       .  S
C1199      H1211   1.107       .  S
C1199      H1212   1.111       .  S
C1213      C1214   1.400       .  A
C1213      C1218   1.401       .  A
C1213      H1223   1.085       .  S
C1214      C1219   1.480       .  S
C1214      C1215   1.411       .  A
C1215      C1216   1.404       .  A
C1215      C1220   1.506   1_565  S
C1216      C1217   1.404       .  A
C1216      H1221   1.084   1_565  S
C1217      C1218   1.417       .  A
C1218      C1222   1.509       .  S
C1219      C1224   1.410       .  A
C1219      C1228   1.399   1_565  A
C1220      H1236   1.110       .  S
C1220      H1237   1.110   1_545  S
C1220      H1238   1.111       .  S
C1222      H1233   1.110       .  S
C1222      H1234   1.111       .  S
C1222      H1235   1.106       .  S
C1224      C1225   1.402       .  A
C1224      C1229   1.507       .  S
C1225      C1226   1.405       .  A
C1225      H1230   1.084       .  S
C1226      C1227   1.421   1_565  A
C1227      C1228   1.404       .  A
C1227      C1231   1.509       .  S
C1228      H1232   1.084       .  S
C1229      H1239   1.111       .  S
C1229      H1240   1.110       .  S
C1229      H1241   1.110       .  S
C1231      H1242   1.111       .  S
C1231      H1243   1.110       .  S
C1231      H1244   1.109       .  S
C1245      C1246   1.401       .  A
C1245      C1250   1.407       .  A
C1245      H1255   1.084       .  S
C1246      C1251   1.484       .  S
C1246      C1247   1.408       .  A
C1247      C1248   1.402       .  A
C1247      C1252   1.507       .  S
C1248      C1249   1.410       .  A
C1248      H1253   1.083       .  S
C1249      C1250   1.421       .  A
C1250      C1254   1.507       .  S
C1251      C1256   1.410       .  A
C1251      C1260   1.405       .  A
C1252      H1268   1.109       .  S
C1252      H1269   1.111       .  S
C1252      H1270   1.111       .  S
C1254      H1265   1.110       .  S
C1254      H1266   1.111       .  S
C1254      H1267   1.109       .  S
C1256      C1257   1.400       .  A
C1256      C1261   1.508       .  S
C1257      C1258   1.404       .  A
C1257      H1262   1.085       .  S
C1258      C1259   1.416       .  A
C1259      C1260   1.406       .  A
C1259      C1263   1.508       .  S
C1260      H1264   1.084       .  S
C1261      H1271   1.111       .  S
C1261      H1272   1.109       .  S
C1261      H1273   1.110       .  S
C1263      H1274   1.110       .  S
C1263      H1275   1.107       .  S
C1263      H1276   1.110       .  S
C1277      C1278   1.401       .  A
C1277      C1282   1.402       .  A
C1277      H1287   1.085       .  S
C1278      C1283   1.475       .  S
C1278      C1279   1.408       .  A
C1279      C1280   1.401       .  A
C1279      C1284   1.507       .  S
C1280      C1281   1.405       .  A
C1280      H1285   1.084       .  S
C1281      C1282   1.414       .  A
C1282      C1286   1.507       .  S
C1283      C1288   1.410       .  A
C1283      C1292   1.400       .  A
C1284      H1300   1.110       .  S
C1284      H1301   1.110       .  S
C1284      H1302   1.111       .  S
C1286      H1297   1.111       .  S
C1286      H1298   1.110       .  S
C1286      H1299   1.106       .  S
C1288      C1289   1.402       .  A
C1288      C1293   1.506       .  S
C1289      C1290   1.402       .  A
C1289      H1294   1.084       .  S
C1290      C1291   1.415       .  A
C1291      C1292   1.400       .  A
C1291      C1295   1.510       .  S
C1292      H1296   1.085       .  S
C1293      H1303   1.111       .  S
C1293      H1304   1.110       .  S
C1293      H1305   1.110       .  S
C1295      H1306   1.110       .  S
C1295      H1307   1.107       .  S
C1295      H1308   1.111       .  S
C1309      C1310   1.401       .  A
C1309      C1314   1.401       .  A
C1309      H1319   1.085       .  S
C1310      C1315   1.473       .  S
C1310      C1311   1.408       .  A
C1311      C1312   1.398       .  A
C1311      C1316   1.507       .  S
C1312      C1313   1.405       .  A
C1312      H1317   1.084       .  S
C1313      C1314   1.415       .  A
C1314      C1318   1.508       .  S
C1315      C1320   1.407       .  A
C1315      C1324   1.399       .  A
C1316      H1332   1.110       .  S
C1316      H1333   1.110       .  S
C1316      H1334   1.111       .  S
C1318      H1329   1.110       .  S
C1318      H1330   1.111       .  S
C1318      H1331   1.106       .  S
C1320      C1321   1.399       .  A
C1320      C1325   1.507       .  S
C1321      C1322   1.407       .  A
C1321      H1326   1.084       .  S
C1322      C1323   1.420       .  A
C1323      C1324   1.402       .  A
C1323      C1327   1.508       .  S
C1324      H1328   1.084       .  S
C1325      H1335   1.111       .  S
C1325      H1336   1.110       .  S
C1325      H1337   1.110       .  S
C1327      H1338   1.111       .  S
C1327      H1339   1.109       .  S
C1327      H1340   1.110   1_545  S
C1341      C1342   1.399       .  A
C1341      C1346   1.403       .  A
C1341      H1351   1.084       .  S
C1342      C1347   1.477       .  S
C1342      C1343   1.411       .  A
C1343      C1344   1.403       .  A
C1343      C1348   1.508       .  S
C1344      C1345   1.405       .  A
C1344      H1349   1.084       .  S
C1345      C1346   1.419       .  A
C1346      C1350   1.508   1_545  S
C1347      C1352   1.410       .  A
C1347      C1356   1.398       .  A
C1348      H1364   1.110       .  S
C1348      H1365   1.108       .  S
C1348      H1366   1.111       .  S
C1350      H1361   1.110       .  S
C1350      H1362   1.111   1_565  S
C1350      H1363   1.109       .  S
C1352      C1353   1.404       .  A
C1352      C1357   1.506       .  S
C1353      C1354   1.406       .  A
C1353      H1358   1.084       .  S
C1354      C1355   1.418       .  A
C1355      C1356   1.399       .  A
C1355      C1359   1.508       .  S
C1356      H1360   1.085       .  S
C1357      H1367   1.111       .  S
C1357      H1368   1.110       .  S
C1357      H1369   1.108       .  S
C1359      H1370   1.110       .  S
C1359      H1371   1.110       .  S
C1359      H1372   1.111       .  S
C1373      C1374   1.403       .  A
C1373      C1378   1.405       .  A
C1373      H1383   1.084       .  S
C1374      C1379   1.478       .  S
C1374      C1375   1.408       .  A
C1375      C1376   1.399       .  A
C1375      C1380   1.505       .  S
C1376      C1377   1.402       .  A
C1376      H1381   1.085       .  S
C1377      C1378   1.415       .  A
C1378      C1382   1.509       .  S
C1379      C1384   1.410       .  A
C1379      C1388   1.399       .  A
C1380      H1396   1.110       .  S
C1380      H1397   1.110       .  S
C1380      H1398   1.109       .  S
C1382      H1393   1.110       .  S
C1382      H1394   1.110       .  S
C1382      H1395   1.107       .  S
C1384      C1385   1.403       .  A
C1384      C1389   1.506   1_565  S
C1385      C1386   1.404       .  A
C1385      H1390   1.084       .  S
C1386      C1387   1.419       .  A
C1387      C1388   1.403       .  A
C1387      C1391   1.508       .  S
C1388      H1392   1.084       .  S
C1389      H1399   1.111       .  S
C1389      H1400   1.110   1_545  S
C1389      H1401   1.110       .  S
C1391      H1402   1.109       .  S
C1391      H1403   1.110       .  S
C1391      H1404   1.111       .  S
C1405      C1406   1.397       .  A
C1405      C1410   1.403       .  A
C1405      H1415   1.085       .  S
C1406      C1411   1.472       .  S
C1406      C1407   1.405       .  A
C1407      C1408   1.400       .  A
C1407      C1412   1.508       .  S
C1408      C1409   1.412       .  A
C1408      H1413   1.083       .  S
C1409      C1410   1.425       .  A
C1410      C1414   1.509       .  S
C1411      C1416   1.410       .  A
C1411      C1420   1.397       .  A
C1412      H1428   1.110       .  S
C1412      H1429   1.110       .  S
C1412      H1430   1.111       .  S
C1414      H1425   1.111       .  S
C1414      H1426   1.110       .  S
C1414      H1427   1.110       .  S
C1416      C1417   1.404       .  A
C1416      C1421   1.505       .  S
C1417      C1418   1.402       .  A
C1417      H1422   1.084       .  S
C1418      C1419   1.416       .  A
C1419      C1420   1.395       .  A
C1419      C1423   1.508       .  S
C1420      H1424   1.085       .  S
C1421      H1431   1.111       .  S
C1421      H1432   1.110       .  S
C1421      H1433   1.110       .  S
C1423      H1434   1.110       .  S
C1423      H1435   1.103       .  S
C1423      H1436   1.110       .  S
C1437      C1438   1.399       .  A
C1437      C1442   1.399       .  A
C1437      H1447   1.084       .  S
C1438      C1443   1.475       .  S
C1438      C1439   1.410       .  A
C1439      C1440   1.403       .  A
C1439      C1444   1.507       .  S
C1440      C1441   1.404       .  A
C1440      H1445   1.084       .  S
C1441      C1442   1.417       .  A
C1442      C1446   1.509       .  S
C1443      C1448   1.408       .  A
C1443      C1452   1.402       .  A
C1444      H1460   1.110       .  S
C1444      H1461   1.110       .  S
C1444      H1462   1.111       .  S
C1446      H1457   1.111       .  S
C1446      H1458   1.109       .  S
C1446      H1459   1.111       .  S
C1448      C1449   1.398       .  A
C1448      C1453   1.508       .  S
C1449      C1450   1.407       .  A
C1449      H1454   1.085       .  S
C1450      C1451   1.416       .  A
C1451      C1452   1.404       .  A
C1451      C1455   1.509       .  S
C1452      H1456   1.084       .  S
C1453      H1463   1.111       .  S
C1453      H1464   1.109       .  S
C1453      H1465   1.111       .  S
C1455      H1466   1.110       .  S
C1455      H1467   1.106       .  S
C1455      H1468   1.111       .  S
C1469      C1470   1.400       .  A
C1469      C1474   1.401       .  A
C1469      H1479   1.085       .  S
C1470      C1475   1.472       .  S
C1470      C1471   1.408       .  A
C1471      C1472   1.399       .  A
C1471      C1476   1.507       .  S
C1472      C1473   1.404       .  A
C1472      H1477   1.084       .  S
C1473      C1474   1.415       .  A
C1474      C1478   1.508       .  S
C1475      C1480   1.409       .  A
C1475      C1484   1.398       .  A
C1476      H1492   1.110       .  S
C1476      H1493   1.110       .  S
C1476      H1494   1.111       .  S
C1478      H1489   1.111       .  S
C1478      H1490   1.110       .  S
C1478      H1491   1.106       .  S
C1480      C1481   1.402       .  A
C1480      C1485   1.506       .  S
C1481      C1482   1.404       .  A
C1481      H1486   1.084       .  S
C1482      C1483   1.416       .  A
C1483      C1484   1.400       .  A
C1483      C1487   1.508       .  S
C1484      H1488   1.084       .  S
C1485      H1495   1.111       .  S
C1485      H1496   1.110       .  S
C1485      H1497   1.110       .  S
C1487      H1498   1.109       .  S
C1487      H1499   1.110       .  S
C1487      H1500   1.111       .  S
C1501      C1502   1.403       .  A
C1501      C1506   1.406       .  A
C1501      H1511   1.084       .  S
C1502      C1507   1.481       .  S
C1502      C1503   1.410       .  A
C1503      C1504   1.403       .  A
C1503      C1508   1.507   1_565  S
C1504      C1505   1.404       .  A
C1504      H1509   1.084   1_565  S
C1505      C1506   1.413       .  A
C1506      C1510   1.506       .  S
C1507      C1512   1.412       .  A
C1507      C1516   1.401       .  A
C1508      H1524   1.110       .  S
C1508      H1525   1.109       .  S
C1508      H1526   1.111       .  S
C1510      H1521   1.111       .  S
C1510      H1522   1.111       .  S
C1510      H1523   1.109       .  S
C1512      C1513   1.404       .  A
C1512      C1517   1.507       .  S
C1513      C1514   1.404       .  A
C1513      H1518   1.085       .  S
C1514      C1515   1.416       .  A
C1515      C1516   1.403       .  A
C1515      C1519   1.509       .  S
C1516      H1520   1.085       .  S
C1517      H1527   1.111   1_565  S
C1517      H1528   1.110       .  S
C1517      H1529   1.110   1_565  S
C1519      H1530   1.110       .  S
C1519      H1531   1.107       .  S
C1519      H1532   1.111       .  S
C1533      C1534   1.398       .  A
C1533      C1538   1.402       .  A
C1533      H1543   1.084       .  S
C1534      C1539   1.479       .  S
C1534      C1535   1.410       .  A
C1535      C1536   1.405       .  A
C1535      C1540   1.506       .  S
C1536      C1537   1.406       .  A
C1536      H1541   1.084       .  S
C1537      C1538   1.421       .  A
C1538      C1542   1.509       .  S
C1539      C1544   1.411       .  A
C1539      C1548   1.399       .  A
C1540      H1556   1.110       .  S
C1540      H1557   1.110       .  S
C1540      H1558   1.111       .  S
C1542      H1553   1.108       .  S
C1542      H1554   1.111       .  S
C1542      H1555   1.110       .  S
C1544      C1545   1.404       .  A
C1544      C1549   1.505       .  S
C1545      C1546   1.403       .  A
C1545      H1550   1.084       .  S
C1546      C1547   1.421       .  A
C1547      C1548   1.402       .  A
C1547      C1551   1.509       .  S
C1548      H1552   1.085       .  S
C1549      H1559   1.111       .  S
C1549      H1560   1.110       .  S
C1549      H1561   1.110       .  S
C1551      H1562   1.110       .  S
C1551      H1563   1.109       .  S
C1551      H1564   1.111       .  S
C1565      C1566   1.398       .  A
C1565      C1570   1.406       .  A
C1565      H1575   1.084       .  S
C1566      C1571   1.484       .  S
C1566      C1567   1.409       .  A
C1567      C1568   1.405       .  A
C1567      C1572   1.505       .  S
C1568      C1569   1.408       .  A
C1568      H1573   1.084       .  S
C1569      C1570   1.424       .  A
C1570      C1574   1.509       .  S
C1571      C1576   1.411       .  A
C1571      C1580   1.402       .  A
C1572      H1588   1.109       .  S
C1572      H1589   1.109       .  S
C1572      H1590   1.111       .  S
C1574      H1585   1.111       .  S
C1574      H1586   1.110       .  S
C1574      H1587   1.110       .  S
C1576      C1577   1.404       .  A
C1576      C1581   1.507       .  S
C1577      C1578   1.404       .  A
C1577      H1582   1.084       .  S
C1578      C1579   1.419       .  A
C1579      C1580   1.406       .  A
C1579      C1583   1.509       .  S
C1580      H1584   1.084       .  S
C1581      H1591   1.111       .  S
C1581      H1592   1.110       .  S
C1581      H1593   1.110       .  S
C1583      H1594   1.110       .  S
C1583      H1595   1.107       .  S
C1583      H1596   1.111       .  S
C1597      C1598   1.400       .  A
C1597      C1602   1.402       .  A
C1597      H1607   1.084       .  S
C1598      C1603   1.480       .  S
C1598      C1599   1.410   1_455  A
C1599      C1600   1.406       .  A
C1599      C1604   1.505       .  S
C1600      C1601   1.406       .  A
C1600      H1605   1.084       .  S
C1601      C1602   1.416   1_655  A
C1602      C1606   1.506       .  S
C1603      C1608   1.407       .  A
C1603      C1612   1.402       .  A
C1604      H1620   1.110       .  S
C1604      H1621   1.110   1_655  S
C1604      H1622   1.111       .  S
C1606      H1617   1.111       .  S
C1606      H1618   1.108   1_455  S
C1606      H1619   1.110       .  S
C1608      C1609   1.400       .  A
C1608      C1613   1.508       .  S
C1609      C1610   1.410       .  A
C1609      H1614   1.084       .  S
C1610      C1611   1.420       .  A
C1611      C1612   1.408       .  A
C1611      C1615   1.507       .  S
C1612      H1616   1.084       .  S
C1613      H1623   1.111       .  S
C1613      H1624   1.110       .  S
C1613      H1625   1.110       .  S
C1615      H1626   1.109       .  S
C1615      H1627   1.111       .  S
C1615      H1628   1.111       .  S
C1629      C1630   1.400       .  A
C1629      C1634   1.405       .  A
C1629      H1639   1.084       .  S
C1630      C1635   1.476       .  S
C1630      C1631   1.407       .  A
C1631      C1632   1.399       .  A
C1631      C1636   1.507       .  S
C1632      C1633   1.406       .  A
C1632      H1637   1.084       .  S
C1633      C1634   1.420       .  A
C1634      C1638   1.508   1_545  S
C1635      C1640   1.410       .  A
C1635      C1644   1.400       .  A
C1636      H1652   1.110       .  S
C1636      H1653   1.110       .  S
C1636      H1654   1.111       .  S
C1638      H1649   1.107       .  S
C1638      H1650   1.111       .  S
C1638      H1651   1.110       .  S
C1640      C1641   1.401       .  A
C1640      C1645   1.507       .  S
C1641      C1642   1.403       .  A
C1641      H1646   1.084       .  S
C1642      C1643   1.416       .  A
C1643      C1644   1.403       .  A
C1643      C1647   1.507       .  S
C1644      H1648   1.084       .  S
C1645      H1655   1.111       .  S
C1645      H1656   1.110       .  S
C1645      H1657   1.110       .  S
C1647      H1658   1.111       .  S
C1647      H1659   1.107       .  S
C1647      H1660   1.110       .  S
C1661      C1662   1.398       .  A
C1661      C1666   1.402   1_655  A
C1661      H1671   1.084       .  S
C1662      C1667   1.478       .  S
C1662      C1663   1.410       .  A
C1663      C1664   1.403       .  A
C1663      C1668   1.505       .  S
C1664      C1665   1.404   1_655  A
C1664      H1669   1.084       .  S
C1665      C1666   1.418       .  A
C1666      C1670   1.508       .  S
C1667      C1672   1.409       .  A
C1667      C1676   1.400       .  A
C1668      H1684   1.110       .  S
C1668      H1685   1.110       .  S
C1668      H1686   1.110       .  S
C1670      H1681   1.109       .  S
C1670      H1682   1.111       .  S
C1670      H1683   1.110       .  S
C1672      C1673   1.401       .  A
C1672      C1677   1.507       .  S
C1673      C1674   1.405       .  A
C1673      H1678   1.084       .  S
C1674      C1675   1.416       .  A
C1675      C1676   1.405       .  A
C1675      C1679   1.505       .  S
C1676      H1680   1.084       .  S
C1677      H1687   1.111       .  S
C1677      H1688   1.110       .  S
C1677      H1689   1.110       .  S
C1679      H1690   1.111       .  S
C1679      H1691   1.111       .  S
C1679      H1692   1.108       .  S
C1693      C1694   1.398       .  A
C1693      C1698   1.404       .  A
C1693      H1703   1.084       .  S
C1694      C1699   1.473       .  S
C1694      C1695   1.405       .  A
C1695      C1696   1.399       .  A
C1695      C1700   1.508       .  S
C1696      C1697   1.411       .  A
C1696      H1701   1.083       .  S
C1697      C1698   1.423       .  A
C1698      C1702   1.508       .  S
C1699      C1704   1.410       .  A
C1699      C1708   1.399       .  A
C1700      H1716   1.110       .  S
C1700      H1717   1.110       .  S
C1700      H1718   1.111       .  S
C1702      H1713   1.111       .  S
C1702      H1714   1.110       .  S
C1702      H1715   1.110       .  S
C1704      C1705   1.402       .  A
C1704      C1709   1.506       .  S
C1705      C1706   1.403       .  A
C1705      H1710   1.084       .  S
C1706      C1707   1.416       .  A
C1707      C1708   1.400       .  A
C1707      C1711   1.510       .  S
C1708      H1712   1.084       .  S
C1709      H1719   1.111       .  S
C1709      H1720   1.110       .  S
C1709      H1721   1.110       .  S
C1711      H1722   1.109       .  S
C1711      H1723   1.111       .  S
C1711      H1724   1.111       .  S
C1725      C1726   1.400       .  A
C1725      C1730   1.402       .  A
C1725      H1735   1.084       .  S
C1726      C1731   1.476       .  S
C1726      C1727   1.409       .  A
C1727      C1728   1.402       .  A
C1727      C1732   1.506       .  S
C1728      C1729   1.405       .  A
C1728      H1733   1.084   1_545  S
C1729      C1730   1.417       .  A
C1730      C1734   1.509       .  S
C1731      C1736   1.407       .  A
C1731      C1740   1.398       .  A
C1732      H1748   1.110       .  S
C1732      H1749   1.110       .  S
C1732      H1750   1.111   1_545  S
C1734      H1745   1.109       .  S
C1734      H1746   1.111       .  S
C1734      H1747   1.111       .  S
C1736      C1737   1.402       .  A
C1736      C1741   1.507       .  S
C1737      C1738   1.408       .  A
C1737      H1742   1.084       .  S
C1738      C1739   1.422       .  A
C1739      C1740   1.403       .  A
C1739      C1743   1.508       .  S
C1740      H1744   1.084       .  S
C1741      H1751   1.111       .  S
C1741      H1752   1.110       .  S
C1741      H1753   1.110       .  S
C1743      H1754   1.111       .  S
C1743      H1755   1.109       .  S
C1743      H1756   1.109       .  S
C1757      C1758   1.399       .  A
C1757      C1762   1.404       .  A
C1757      H1767   1.084       .  S
C1758      C1763   1.475       .  S
C1758      C1759   1.408       .  A
C1759      C1760   1.400       .  A
C1759      C1764   1.508       .  S
C1760      C1761   1.406       .  A
C1760      H1765   1.084       .  S
C1761      C1762   1.420       .  A
C1762      C1766   1.507       .  S
C1763      C1768   1.409       .  A
C1763      C1772   1.401       .  A
C1764      H1780   1.110       .  S
C1764      H1781   1.110       .  S
C1764      H1782   1.111       .  S
C1766      H1777   1.111       .  S
C1766      H1778   1.106       .  S
C1766      H1779   1.109       .  S
C1768      C1769   1.401       .  A
C1768      C1773   1.506       .  S
C1769      C1770   1.402       .  A
C1769      H1774   1.084       .  S
C1770      C1771   1.415       .  A
C1771      C1772   1.401       .  A
C1771      C1775   1.508       .  S
C1772      H1776   1.085       .  S
C1773      H1783   1.111       .  S
C1773      H1784   1.110       .  S
C1773      H1785   1.110       .  S
C1775      H1786   1.110       .  S
C1775      H1787   1.107       .  S
C1775      H1788   1.111       .  S
C1789      C1790   1.399       .  A
C1789      C1794   1.402       .  A
C1789      H1799   1.084       .  S
C1790      C1795   1.474       .  S
C1790      C1791   1.407       .  A
C1791      C1792   1.401       .  A
C1791      C1796   1.506       .  S
C1792      C1793   1.407       .  A
C1792      H1797   1.084       .  S
C1793      C1794   1.417       .  A
C1794      C1798   1.507       .  S
C1795      C1800   1.408       .  A
C1795      C1804   1.400       .  A
C1796      H1812   1.110       .  S
C1796      H1813   1.110       .  S
C1796      H1814   1.111       .  S
C1798      H1809   1.109       .  S
C1798      H1810   1.111       .  S
C1798      H1811   1.110       .  S
C1800      C1801   1.399       .  A
C1800      C1805   1.507       .  S
C1801      C1802   1.403       .  A
C1801      H1806   1.084       .  S
C1802      C1803   1.418       .  A
C1803      C1804   1.402       .  A
C1803      C1807   1.509       .  S
C1804      H1808   1.085       .  S
C1805      H1815   1.111       .  S
C1805      H1816   1.110       .  S
C1805      H1817   1.110       .  S
C1807      H1818   1.111       .  S
C1807      H1819   1.106       .  S
C1807      H1820   1.110       .  S
C1821      C1822   1.399       .  A
C1821      C1826   1.399       .  A
C1821      H1831   1.084       .  S
C1822      C1827   1.471       .  S
C1822      C1823   1.409       .  A
C1823      C1824   1.401       .  A
C1823      C1828   1.505       .  S
C1824      C1825   1.402       .  A
C1824      H1829   1.084       .  S
C1825      C1826   1.416       .  A
C1826      C1830   1.510       .  S
C1827      C1832   1.409       .  A
C1827      C1836   1.398       .  A
C1828      H1844   1.110       .  S
C1828      H1845   1.110       .  S
C1828      H1846   1.111       .  S
C1830      H1841   1.111       .  S
C1830      H1842   1.110       .  S
C1830      H1843   1.110       .  S
C1832      C1833   1.400       .  A
C1832      C1837   1.507       .  S
C1833      C1834   1.405       .  A
C1833      H1838   1.084       .  S
C1834      C1835   1.416       .  A
C1835      C1836   1.399       .  A
C1835      C1839   1.508       .  S
C1836      H1840   1.085       .  S
C1837      H1847   1.111       .  S
C1837      H1848   1.110       .  S
C1837      H1849   1.110       .  S
C1839      H1850   1.110       .  S
C1839      H1851   1.107       .  S
C1839      H1852   1.111       .  S
C1853      C1854   1.395       .  A
C1853      C1858   1.396       .  A
C1853      H1863   1.085       .  S
C1854      C1859   1.468       .  S
C1854      C1855   1.408       .  A
C1855      C1856   1.401       .  A
C1855      C1860   1.505       .  S
C1856      C1857   1.405       .  A
C1856      H1861   1.084       .  S
C1857      C1858   1.418       .  A
C1858      C1862   1.502       .  S
C1859      C1864   1.406       .  A
C1859      C1868   1.397       .  A
C1860      H1876   1.110       .  S
C1860      H1877   1.110       .  S
C1860      H1878   1.111       .  S
C1862      H1873   1.111       .  S
C1862      H1874   1.106       .  S
C1862      H1875   1.110       .  S
C1864      C1865   1.399       .  A
C1864      C1869   1.507       .  S
C1865      C1866   1.406       .  A
C1865      H1870   1.084       .  S
C1866      C1867   1.419       .  A
C1867      C1868   1.400       .  A
C1867      C1871   1.508       .  S
C1868      H1872   1.085       .  S
C1869      H1879   1.111       .  S
C1869      H1880   1.110       .  S
C1869      H1881   1.110       .  S
C1871      H1882   1.110       .  S
C1871      H1883   1.109       .  S
C1871      H1884   1.111       .  S
C1885      C1886   1.396       .  A
C1885      C1890   1.400       .  A
C1885      H1895   1.085       .  S
C1886      C1891   1.472       .  S
C1886      C1887   1.407       .  A
C1887      C1888   1.402       .  A
C1887      C1892   1.506       .  S
C1888      C1889   1.407       .  A
C1888      H1893   1.083       .  S
C1889      C1890   1.422       .  A
C1890      C1894   1.508       .  S
C1891      C1896   1.411       .  A
C1891      C1900   1.400       .  A
C1892      H1908   1.110       .  S
C1892      H1909   1.110       .  S
C1892      H1910   1.111       .  S
C1894      H1905   1.111       .  S
C1894      H1906   1.110       .  S
C1894      H1907   1.109       .  S
C1896      C1897   1.400       .  A
C1896      C1901   1.507       .  S
C1897      C1898   1.399       .  A
C1897      H1902   1.081       .  S
C1898      C1899   1.415       .  A
C1899      C1900   1.400       .  A
C1899      C1903   1.509       .  S
C1900      H1904   1.085       .  S
C1901      H1911   1.111       .  S
C1901      H1912   1.110       .  S
C1901      H1913   1.110       .  S
C1903      H1914   1.110       .  S
C1903      H1915   1.107       .  S
C1903      H1916   1.110       .  S
C1917      C1918   1.400       .  A
C1917      C1922   1.405   1_554  A
C1917      H1927   1.084       .  S
C1918      C1923   1.478       .  S
C1918      C1919   1.410       .  A
C1919      C1920   1.402       .  A
C1919      C1924   1.508   1_545  S
C1920      C1921   1.406   1_554  A
C1920      H1925   1.084   1_545  S
C1921      C1922   1.417       .  A
C1922      C1926   1.507       .  S
C1923      C1928   1.411       .  A
C1923      C1932   1.395       .  A
C1924      H1940   1.110       .  S
C1924      H1941   1.110       .  S
C1924      H1942   1.111       .  S
C1926      H1937   1.111       .  S
C1926      H1938   1.109       .  S
C1926      H1939   1.110       .  S
C1928      C1929   1.409       .  A
C1928      C1933   1.504       .  S
C1929      C1930   1.405       .  A
C1929      H1934   1.084       .  S
C1930      C1931   1.419       .  A
C1931      C1932   1.397       .  A
C1931      C1935   1.506   1_544  S
C1932      H1936   1.085   1_554  S
C1933      H1943   1.111       .  S
C1933      H1944   1.111       .  S
C1933      H1945   1.110       .  S
C1935      H1946   1.109   1_565  S
C1935      H1947   1.109       .  S
C1935      H1948   1.111       .  S
C1949      C1950   1.399       .  A
C1949      C1954   1.399   1_554  A
C1949      H1959   1.085   1_554  S
C1950      C1955   1.473       .  S
C1950      C1951   1.410       .  A
C1951      C1952   1.402   1_565  A
C1951      C1956   1.506   1_565  S
C1952      C1953   1.402       .  A
C1952      H1957   1.084       .  S
C1953      C1954   1.415   1_544  A
C1954      C1958   1.508       .  S
C1955      C1960   1.408       .  A
C1955      C1964   1.400       .  A
C1956      H1972   1.110       .  S
C1956      H1973   1.110   1_545  S
C1956      H1974   1.111       .  S
C1958      H1969   1.110       .  S
C1958      H1970   1.110       .  S
C1958      H1971   1.107       .  S
C1960      C1961   1.398       .  A
C1960      C1965   1.507       .  S
C1961      C1962   1.405       .  A
C1961      H1966   1.084       .  S
C1962      C1963   1.418       .  A
C1963      C1964   1.403       .  A
C1963      C1967   1.508       .  S
C1964      H1968   1.084       .  S
C1965      H1975   1.111       .  S
C1965      H1976   1.110       .  S
C1965      H1977   1.110       .  S
C1967      H1978   1.109       .  S
C1967      H1979   1.111       .  S
C1967      H1980   1.111       .  S
C1981      C1982   1.400       .  A
C1981      C1986   1.402       .  A
C1981      H1991   1.085       .  S
C1982      C1987   1.481       .  S
C1982      C1983   1.410       .  A
C1983      C1984   1.404       .  A
C1983      C1988   1.506       .  S
C1984      C1985   1.405       .  A
C1984      H1989   1.084       .  S
C1985      C1986   1.418       .  A
C1986      C1990   1.509       .  S
C1987      C1992   1.409       .  A
C1987      C1996   1.402       .  A
C1988      H2004   1.110       .  S
C1988      H2005   1.110       .  S
C1988      H2006   1.111       .  S
C1990      H2001   1.111       .  S
C1990      H2002   1.110       .  S
C1990      H2003   1.107       .  S
C1992      C1993   1.401       .  A
C1992      C1997   1.507       .  S
C1993      C1994   1.405       .  A
C1993      H1998   1.084       .  S
C1994      C1995   1.418       .  A
C1995      C1996   1.406       .  A
C1995      C1999   1.508       .  S
C1996      H2000   1.084       .  S
C1997      H2007   1.111       .  S
C1997      H2008   1.110       .  S
C1997      H2009   1.110       .  S
C1999      H2010   1.109       .  S
C1999      H2011   1.111       .  S
C1999      H2012   1.111       .  S
C2013      C2014   1.403       .  A
C2013      C2018   1.402       .  A
C2013      H2023   1.084       .  S
C2014      C2019   1.483       .  S
C2014      C2015   1.412       .  A
C2015      C2016   1.406       .  A
C2015      C2020   1.506       .  S
C2016      C2017   1.402       .  A
C2016      H2021   1.084       .  S
C2017      C2018   1.409       .  A
C2018      C2022   1.506       .  S
C2019      C2024   1.407       .  A
C2019      C2028   1.400       .  A
C2020      H2036   1.110       .  S
C2020      H2037   1.110       .  S
C2020      H2038   1.111       .  S
C2022      H2033   1.110       .  S
C2022      H2034   1.111       .  S
C2022      H2035   1.110       .  S
C2024      C2025   1.402       .  A
C2024      C2029   1.508       .  S
C2025      C2026   1.412       .  A
C2025      H2030   1.083       .  S
C2026      C2027   1.424       .  A
C2027      C2028   1.407       .  A
C2027      C2031   1.508       .  S
C2028      H2032   1.084       .  S
C2029      H2039   1.111       .  S
C2029      H2040   1.109       .  S
C2029      H2041   1.110       .  S
C2031      H2042   1.111       .  S
C2031      H2043   1.107       .  S
C2031      H2044   1.110       .  S
C2045      C2046   1.401       .  A
C2045      C2050   1.407       .  A
C2045      H2055   1.084       .  S
C2046      C2051   1.481       .  S
C2046      C2047   1.407       .  A
C2047      C2048   1.403       .  A
C2047      C2052   1.507       .  S
C2048      C2049   1.409       .  A
C2048      H2053   1.080       .  S
C2049      C2050   1.420       .  A
C2050      C2054   1.507       .  S
C2051      C2056   1.411       .  A
C2051      C2060   1.402       .  A
C2052      H2068   1.110       .  S
C2052      H2069   1.109       .  S
C2052      H2070   1.111       .  S
C2054      H2065   1.111       .  S
C2054      H2066   1.109       .  S
C2054      H2067   1.111       .  S
C2056      C2057   1.402       .  A
C2056      C2061   1.507       .  S
C2057      C2058   1.402       .  A
C2057      H2062   1.084       .  S
C2058      C2059   1.416       .  A
C2059      C2060   1.404       .  A
C2059      C2063   1.507       .  S
C2060      H2064   1.084       .  S
C2061      H2071   1.111       .  S
C2061      H2072   1.110       .  S
C2061      H2073   1.109       .  S
C2063      H2074   1.110       .  S
C2063      H2075   1.108       .  S
C2063      H2076   1.111       .  S
C2077      C2078   1.400       .  A
C2077      C2082   1.401       .  A
C2077      H2087   1.085       .  S
C2078      C2083   1.475       .  S
C2078      C2079   1.408       .  A
C2079      C2080   1.403       .  A
C2079      C2084   1.506       .  S
C2080      C2081   1.406       .  A
C2080      H2085   1.084       .  S
C2081      C2082   1.417       .  A
C2082      C2086   1.508       .  S
C2083      C2088   1.410       .  A
C2083      C2092   1.400       .  A
C2084      H2100   1.110       .  S
C2084      H2101   1.110       .  S
C2084      H2102   1.111       .  S
C2086      H2097   1.111       .  S
C2086      H2098   1.110       .  S
C2086      H2099   1.106       .  S
C2088      C2089   1.401       .  A
C2088      C2093   1.507       .  S
C2089      C2090   1.402       .  A
C2089      H2094   1.084       .  S
C2090      C2091   1.416       .  A
C2091      C2092   1.401       .  A
C2091      C2095   1.507       .  S
C2092      H2096   1.085       .  S
C2093      H2103   1.111       .  S
C2093      H2104   1.110       .  S
C2093      H2105   1.110       .  S
C2095      H2106   1.110       .  S
C2095      H2107   1.106       .  S
C2095      H2108   1.111       .  S
C2109      C2110   1.400       .  A
C2109      C2114   1.402       .  A
C2109      H2119   1.084       .  S
C2110      C2115   1.477       .  S
C2110      C2111   1.410       .  A
C2111      C2112   1.403       .  A
C2111      C2116   1.506       .  S
C2112      C2113   1.404       .  A
C2112      H2117   1.084       .  S
C2113      C2114   1.415       .  A
C2114      C2118   1.508       .  S
C2115      C2120   1.408       .  A
C2115      C2124   1.398       .  A
C2116      H2132   1.110       .  S
C2116      H2133   1.110       .  S
C2116      H2134   1.111       .  S
C2118      H2129   1.109       .  S
C2118      H2130   1.111       .  S
C2118      H2131   1.111       .  S
C2120      C2121   1.402       .  A
C2120      C2125   1.507       .  S
C2121      C2122   1.408       .  A
C2121      H2126   1.084       .  S
C2122      C2123   1.420       .  A
C2123      C2124   1.403       .  A
C2123      C2127   1.507       .  S
C2124      H2128   1.084       .  S
C2125      H2135   1.111       .  S
C2125      H2136   1.110       .  S
C2125      H2137   1.110       .  S
C2127      H2138   1.110       .  S
C2127      H2139   1.109       .  S
C2127      H2140   1.111       .  S
C2141      C2142   1.398       .  A
C2141      C2146   1.398       .  A
C2141      H2151   1.085       .  S
C2142      C2147   1.470       .  S
C2142      C2143   1.409       .  A
C2143      C2144   1.401       .  A
C2143      C2148   1.506       .  S
C2144      C2145   1.402       .  A
C2144      H2149   1.084       .  S
C2145      C2146   1.415       .  A
C2146      C2150   1.507       .  S
C2147      C2152   1.407       .  A
C2147      C2156   1.401       .  A
C2148      H2164   1.110       .  S
C2148      H2165   1.110       .  S
C2148      H2166   1.111       .  S
C2150      H2161   1.111       .  S
C2150      H2162   1.110       .  S
C2150      H2163   1.107       .  S
C2152      C2153   1.396       .  A
C2152      C2157   1.507       .  S
C2153      C2154   1.403       .  A
C2153      H2158   1.085       .  S
C2154      C2155   1.418       .  A
C2155      C2156   1.402       .  A
C2155      C2159   1.509       .  S
C2156      H2160   1.085       .  S
C2157      H2167   1.110       .  S
C2157      H2168   1.110       .  S
C2157      H2169   1.110       .  S
C2159      H2170   1.110       .  S
C2159      H2171   1.106       .  S
C2159      H2172   1.111       .  S
C2173      C2174   1.399   1_655  A
C2173      C2178   1.403       .  A
C2173      H2183   1.085       .  S
C2174      C2179   1.476       .  S
C2174      C2175   1.409       .  A
C2175      C2176   1.402   1_455  A
C2175      C2180   1.507       .  S
C2176      C2177   1.406       .  A
C2176      H2181   1.084       .  S
C2177      C2178   1.420       .  A
C2178      C2182   1.508       .  S
C2179      C2184   1.407       .  A
C2179      C2188   1.403       .  A
C2180      H2196   1.110       .  S
C2180      H2197   1.110       .  S
C2180      H2198   1.111       .  S
C2182      H2193   1.110       .  S
C2182      H2194   1.111       .  S
C2182      H2195   1.105       .  S
C2184      C2185   1.397       .  A
C2184      C2189   1.508       .  S
C2185      C2186   1.407       .  A
C2185      H2190   1.085       .  S
C2186      C2187   1.416       .  A
C2187      C2188   1.405       .  A
C2187      C2191   1.507       .  S
C2188      H2192   1.084       .  S
C2189      H2199   1.111       .  S
C2189      H2200   1.110       .  S
C2189      H2201   1.110       .  S
C2191      H2202   1.111       .  S
C2191      H2203   1.107       .  S
C2191      H2204   1.110       .  S
C2205      C2206   1.400       .  A
C2205      C2210   1.403       .  A
C2205      H2215   1.084       .  S
C2206      C2211   1.474       .  S
C2206      C2207   1.408       .  A
C2207      C2208   1.401       .  A
C2207      C2212   1.507       .  S
C2208      C2209   1.405       .  A
C2208      H2213   1.084       .  S
C2209      C2210   1.418       .  A
C2210      C2214   1.508       .  S
C2211      C2216   1.409       .  A
C2211      C2220   1.399       .  A
C2212      H2228   1.110       .  S
C2212      H2229   1.110       .  S
C2212      H2230   1.111       .  S
C2214      H2225   1.109       .  S
C2214      H2226   1.111       .  S
C2214      H2227   1.111       .  S
C2216      C2217   1.402       .  A
C2216      C2221   1.505       .  S
C2217      C2218   1.403       .  A
C2217      H2222   1.084       .  S
C2218      C2219   1.417       .  A
C2219      C2220   1.399       .  A
C2219      C2223   1.510       .  S
C2220      H2224   1.084       .  S
C2221      H2231   1.111       .  S
C2221      H2232   1.110       .  S
C2221      H2233   1.110       .  S
C2223      H2234   1.111       .  S
C2223      H2235   1.111       .  S
C2223      H2236   1.109       .  S
C2237      C2238   1.402       .  A
C2237      C2242   1.406       .  A
C2237      H2247   1.084       .  S
C2238      C2243   1.480       .  S
C2238      C2239   1.409       .  A
C2239      C2240   1.402       .  A
C2239      C2244   1.506       .  S
C2240      C2241   1.404       .  A
C2240      H2245   1.084       .  S
C2241      C2242   1.416       .  A
C2242      C2246   1.507       .  S
C2243      C2248   1.410       .  A
C2243      C2252   1.401       .  A
C2244      H2260   1.110       .  S
C2244      H2261   1.110       .  S
C2244      H2262   1.111       .  S
C2246      H2257   1.109       .  S
C2246      H2258   1.111       .  S
C2246      H2259   1.111       .  S
C2248      C2249   1.404       .  A
C2248      C2253   1.506       .  S
C2249      C2250   1.405       .  A
C2249      H2254   1.085       .  S
C2250      C2251   1.415       .  A
C2251      C2252   1.404       .  A
C2251      C2255   1.508       .  S
C2252      H2256   1.084       .  S
C2253      H2263   1.109       .  S
C2253      H2264   1.110       .  S
C2253      H2265   1.110       .  S
C2255      H2266   1.111       .  S
C2255      H2267   1.111       .  S
C2255      H2268   1.110       .  S
C2269      C2270   1.399       .  A
C2269      C2274   1.402       .  A
C2269      H2279   1.084       .  S
C2270      C2275   1.478       .  S
C2270      C2271   1.410       .  A
C2271      C2272   1.404       .  A
C2271      C2276   1.507       .  S
C2272      C2273   1.405       .  A
C2272      H2277   1.084       .  S
C2273      C2274   1.416       .  A
C2274      C2278   1.508       .  S
C2275      C2280   1.409       .  A
C2275      C2284   1.397       .  A
C2276      H2292   1.110       .  S
C2276      H2293   1.110       .  S
C2276      H2294   1.111       .  S
C2278      H2289   1.109       .  S
C2278      H2290   1.111       .  S
C2278      H2291   1.111       .  S
C2280      C2281   1.403       .  A
C2280      C2285   1.507       .  S
C2281      C2282   1.406       .  A
C2281      H2286   1.084       .  S
C2282      C2283   1.423       .  A
C2283      C2284   1.402       .  A
C2283      C2287   1.508       .  S
C2284      H2288   1.084       .  S
C2285      H2295   1.111       .  S
C2285      H2296   1.110       .  S
C2285      H2297   1.110       .  S
C2287      H2298   1.109       .  S
C2287      H2299   1.109       .  S
C2287      H2300   1.111       .  S
C2301      C2302   1.399       .  A
C2301      C2306   1.401       .  A
C2301      H2311   1.085       .  S
C2302      C2307   1.473       .  S
C2302      C2303   1.410       .  A
C2303      C2304   1.400       .  A
C2303      C2308   1.508       .  S
C2304      C2305   1.403       .  A
C2304      H2309   1.084       .  S
C2305      C2306   1.416       .  A
C2306      C2310   1.508       .  S
C2307      C2312   1.408       .  A
C2307      C2316   1.398       .  A
C2308      H2324   1.110       .  S
C2308      H2325   1.110       .  S
C2308      H2326   1.111       .  S
C2310      H2321   1.110       .  S
C2310      H2322   1.111       .  S
C2310      H2323   1.107       .  S
C2312      C2313   1.399       .  A
C2312      C2317   1.507       .  S
C2313      C2314   1.403       .  A
C2313      H2318   1.081       .  S
C2314      C2315   1.417       .  A
C2315      C2316   1.403       .  A
C2315      C2319   1.504       .  S
C2316      H2320   1.084       .  S
C2317      H2327   1.109       .  S
C2317      H2328   1.110       .  S
C2317      H2329   1.110       .  S
C2319      H2330   1.111       .  S
C2319      H2331   1.109       .  S
C2319      H2332   1.110       .  S
C2333      C2334   1.400       .  A
C2333      C2338   1.404       .  A
C2333      H2343   1.084       .  S
C2334      C2339   1.477       .  S
C2334      C2335   1.409       .  A
C2335      C2336   1.401       .  A
C2335      C2340   1.507       .  S
C2336      C2337   1.406       .  A
C2336      H2341   1.084       .  S
C2337      C2338   1.420       .  A
C2338      C2342   1.508   1_565  S
C2339      C2344   1.410       .  A
C2339      C2348   1.401       .  A
C2340      H2356   1.110       .  S
C2340      H2357   1.111       .  S
C2340      H2358   1.111       .  S
C2342      H2353   1.111       .  S
C2342      H2354   1.109       .  S
C2342      H2355   1.111   1_545  S
C2344      C2345   1.402       .  A
C2344      C2349   1.506       .  S
C2345      C2346   1.403       .  A
C2345      H2350   1.084       .  S
C2346      C2347   1.415       .  A
C2347      C2348   1.401       .  A
C2347      C2351   1.510       .  S
C2348      H2352   1.085       .  S
C2349      H2359   1.111       .  S
C2349      H2360   1.110       .  S
C2349      H2361   1.110       .  S
C2351      H2362   1.110   1_565  S
C2351      H2363   1.107       .  S
C2351      H2364   1.111       .  S
C2365      C2366   1.401       .  A
C2365      C2370   1.404   1_655  A
C2365      H2375   1.084       .  S
C2366      C2371   1.479       .  S
C2366      C2367   1.410       .  A
C2367      C2368   1.401       .  A
C2367      C2372   1.506       .  S
C2368      C2369   1.403   1_655  A
C2368      H2373   1.084       .  S
C2369      C2370   1.417       .  A
C2370      C2374   1.507       .  S
C2371      C2376   1.409       .  A
C2371      C2380   1.400       .  A
C2372      H2388   1.110       .  S
C2372      H2389   1.109       .  S
C2372      H2390   1.111       .  S
C2374      H2385   1.110       .  S
C2374      H2386   1.110       .  S
C2374      H2387   1.107       .  S
C2376      C2377   1.404       .  A
C2376      C2381   1.506       .  S
C2377      C2378   1.407       .  A
C2377      H2382   1.083       .  S
C2378      C2379   1.418       .  A
C2379      C2380   1.403       .  A
C2379      C2383   1.509       .  S
C2380      H2384   1.084       .  S
C2381      H2391   1.111       .  S
C2381      H2392   1.110       .  S
C2381      H2393   1.110       .  S
C2383      H2394   1.111       .  S
C2383      H2395   1.109       .  S
C2383      H2396   1.111       .  S
C2397      C2398   1.396       .  A
C2397      C2402   1.402       .  A
C2397      H2407   1.084       .  S
C2398      C2403   1.474       .  S
C2398      C2399   1.408       .  A
C2399      C2400   1.401       .  A
C2399      C2404   1.507       .  S
C2400      C2401   1.407       .  A
C2400      H2405   1.084       .  S
C2401      C2402   1.426       .  A
C2402      C2406   1.510       .  S
C2403      C2408   1.409       .  A
C2403      C2412   1.399       .  A
C2404      H2420   1.110       .  S
C2404      H2421   1.110       .  S
C2404      H2422   1.111       .  S
C2406      H2417   1.110       .  S
C2406      H2418   1.111       .  S
C2406      H2419   1.110       .  S
C2408      C2409   1.402       .  A
C2408      C2413   1.506       .  S
C2409      C2410   1.405       .  A
C2409      H2414   1.084       .  S
C2410      C2411   1.417       .  A
C2411      C2412   1.399       .  A
C2411      C2415   1.510       .  S
C2412      H2416   1.084       .  S
C2413      H2423   1.111       .  S
C2413      H2424   1.110       .  S
C2413      H2425   1.110       .  S
C2415      H2426   1.111       .  S
C2415      H2427   1.111       .  S
C2415      H2428   1.109       .  S
C2429      C2430   1.400       .  A
C2429      C2434   1.403       .  A
C2429      H2439   1.084       .  S
C2430      C2435   1.474       .  S
C2430      C2431   1.407       .  A
C2431      C2432   1.399       .  A
C2431      C2436   1.507       .  S
C2432      C2433   1.407       .  A
C2432      H2437   1.084       .  S
C2433      C2434   1.416       .  A
C2434      C2438   1.506       .  S
C2435      C2440   1.409       .  A
C2435      C2444   1.399       .  A
C2436      H2452   1.110       .  S
C2436      H2453   1.110       .  S
C2436      H2454   1.111       .  S
C2438      H2449   1.109       .  S
C2438      H2450   1.111       .  S
C2438      H2451   1.110       .  S
C2440      C2441   1.401       .  A
C2440      C2445   1.507       .  S
C2441      C2442   1.404       .  A
C2441      H2446   1.084       .  S
C2442      C2443   1.418       .  A
C2443      C2444   1.402       .  A
C2443      C2447   1.508       .  S
C2444      H2448   1.084       .  S
C2445      H2455   1.111       .  S
C2445      H2456   1.110       .  S
C2445      H2457   1.111       .  S
C2447      H2458   1.111       .  S
C2447      H2459   1.110       .  S
C2447      H2460   1.109       .  S
C2461      C2462   1.401       .  A
C2461      C2466   1.404       .  A
C2461      H2471   1.085       .  S
C2462      C2467   1.482       .  S
C2462      C2463   1.410       .  A
C2463      C2464   1.403       .  A
C2463      C2468   1.507       .  S
C2464      C2465   1.405       .  A
C2464      H2469   1.083       .  S
C2465      C2466   1.417       .  A
C2466      C2470   1.507       .  S
C2467      C2472   1.409       .  A
C2467      C2476   1.402       .  A
C2468      H2484   1.110       .  S
C2468      H2485   1.110       .  S
C2468      H2486   1.111       .  S
C2470      H2481   1.110       .  S
C2470      H2482   1.111       .  S
C2470      H2483   1.106       .  S
C2472      C2473   1.402       .  A
C2472      C2477   1.507       .  S
C2473      C2474   1.406       .  A
C2473      H2478   1.084       .  S
C2474      C2475   1.418       .  A
C2475      C2476   1.406       .  A
C2475      C2479   1.508       .  S
C2476      H2480   1.084       .  S
C2477      H2487   1.111       .  S
C2477      H2488   1.110       .  S
C2477      H2489   1.110       .  S
C2479      H2490   1.111       .  S
C2479      H2491   1.111       .  S
C2479      H2492   1.109       .  S
C2493      C2494   1.401       .  A
C2493      C2498   1.402       .  A
C2493      H2503   1.085       .  S
C2494      C2499   1.479       .  S
C2494      C2495   1.409       .  A
C2495      C2496   1.403       .  A
C2495      C2500   1.506       .  S
C2496      C2497   1.403       .  A
C2496      H2501   1.084   1_565  S
C2497      C2498   1.417       .  A
C2498      C2502   1.508       .  S
C2499      C2504   1.408       .  A
C2499      C2508   1.401       .  A
C2500      H2516   1.110       .  S
C2500      H2517   1.110       .  S
C2500      H2518   1.111       .  S
C2502      H2513   1.111       .  S
C2502      H2514   1.110       .  S
C2502      H2515   1.107       .  S
C2504      C2505   1.400       .  A
C2504      C2509   1.508       .  S
C2505      C2506   1.409       .  A
C2505      H2510   1.084       .  S
C2506      C2507   1.419       .  A
C2507      C2508   1.405       .  A
C2507      C2511   1.508       .  S
C2508      H2512   1.084       .  S
C2509      H2519   1.111       .  S
C2509      H2520   1.110       .  S
C2509      H2521   1.110       .  S
C2511      H2522   1.110       .  S
C2511      H2523   1.107       .  S
C2511      H2524   1.111       .  S
C2525      C2526   1.401       .  A
C2525      C2530   1.403       .  A
C2525      H2535   1.084       .  S
C2526      C2531   1.475       .  S
C2526      C2527   1.410       .  A
C2527      C2528   1.400       .  A
C2527      C2532   1.507       .  S
C2528      C2529   1.403       .  A
C2528      H2533   1.085       .  S
C2529      C2530   1.414       .  A
C2530      C2534   1.508   1_545  S
C2531      C2536   1.410       .  A
C2531      C2540   1.398       .  A
C2532      H2548   1.110       .  S
C2532      H2549   1.109       .  S
C2532      H2550   1.110       .  S
C2534      H2545   1.111       .  S
C2534      H2546   1.110       .  S
C2534      H2547   1.110       .  S
C2536      C2537   1.403       .  A
C2536      C2541   1.508       .  S
C2537      C2538   1.404       .  A
C2537      H2542   1.084       .  S
C2538      C2539   1.418       .  A
C2539      C2540   1.401       .  A
C2539      C2543   1.509       .  S
C2540      H2544   1.085       .  S
C2541      H2551   1.111       .  S
C2541      H2552   1.110       .  S
C2541      H2553   1.109       .  S
C2543      H2554   1.110       .  S
C2543      H2555   1.106       .  S
C2543      H2556   1.111       .  S
C2557      C2558   1.398       .  A
C2557      C2562   1.398       .  A
C2557      H2567   1.085       .  S
C2558      C2563   1.476       .  S
C2558      C2559   1.409       .  A
C2559      C2560   1.403       .  A
C2559      C2564   1.505       .  S
C2560      C2561   1.405       .  A
C2560      H2565   1.084       .  S
C2561      C2562   1.419       .  A
C2562      C2566   1.509       .  S
C2563      C2568   1.411       .  A
C2563      C2572   1.399       .  A
C2564      H2580   1.110       .  S
C2564      H2581   1.110       .  S
C2564      H2582   1.111       .  S
C2566      H2577   1.110       .  S
C2566      H2578   1.110       .  S
C2566      H2579   1.104       .  S
C2568      C2569   1.402       .  A
C2568      C2573   1.508       .  S
C2569      C2570   1.404       .  A
C2569      H2574   1.084       .  S
C2570      C2571   1.417       .  A
C2571      C2572   1.402       .  A
C2571      C2575   1.507       .  S
C2572      H2576   1.085       .  S
C2573      H2583   1.111       .  S
C2573      H2584   1.110       .  S
C2573      H2585   1.110       .  S
C2575      H2586   1.110       .  S
C2575      H2587   1.107       .  S
C2575      H2588   1.111       .  S
C2589      C2590   1.400       .  A
C2589      C2594   1.402       .  A
C2589      H2599   1.084       .  S
C2590      C2595   1.478       .  S
C2590      C2591   1.411       .  A
C2591      C2592   1.402       .  A
C2591      C2596   1.507       .  S
C2592      C2593   1.402       .  A
C2592      H2597   1.084       .  S
C2593      C2594   1.416       .  A
C2594      C2598   1.508       .  S
C2595      C2600   1.409       .  A
C2595      C2604   1.399       .  A
C2596      H2612   1.110       .  S
C2596      H2613   1.110       .  S
C2596      H2614   1.111       .  S
C2598      H2609   1.111       .  S
C2598      H2610   1.110       .  S
C2598      H2611   1.107       .  S
C2600      C2601   1.403       .  A
C2600      C2605   1.506       .  S
C2601      C2602   1.405       .  A
C2601      H2606   1.084       .  S
C2602      C2603   1.418       .  A
C2603      C2604   1.403       .  A
C2603      C2607   1.508       .  S
C2604      H2608   1.084       .  S
C2605      H2615   1.111       .  S
C2605      H2616   1.110       .  S
C2605      H2617   1.110       .  S
C2607      H2618   1.110       .  S
C2607      H2619   1.110       .  S
C2607      H2620   1.111       .  S
C2621      C2622   1.398       .  A
C2621      C2626   1.406       .  A
C2621      H2631   1.084       .  S
C2622      C2627   1.478   1_565  S
C2622      C2623   1.406       .  A
C2623      C2624   1.401       .  A
C2623      C2628   1.507       .  S
C2624      C2625   1.412       .  A
C2624      H2629   1.082       .  S
C2625      C2626   1.425       .  A
C2626      C2630   1.508       .  S
C2627      C2632   1.411       .  A
C2627      C2636   1.397       .  A
C2628      H2644   1.110   1_565  S
C2628      H2645   1.109       .  S
C2628      H2646   1.111       .  S
C2630      H2641   1.110       .  S
C2630      H2642   1.111       .  S
C2630      H2643   1.109       .  S
C2632      C2633   1.407       .  A
C2632      C2637   1.505       .  S
C2633      C2634   1.404       .  A
C2633      H2638   1.083       .  S
C2634      C2635   1.417       .  A
C2635      C2636   1.397       .  A
C2635      C2639   1.506       .  S
C2636      H2640   1.085       .  S
C2637      H2647   1.111       .  S
C2637      H2648   1.110   1_545  S
C2637      H2649   1.109   1_545  S
C2639      H2650   1.108       .  S
C2639      H2651   1.103       .  S
C2639      H2652   1.109       .  S
C2653      C2654   1.399       .  A
C2653      C2658   1.404       .  A
C2653      H2663   1.084       .  S
C2654      C2659   1.479       .  S
C2654      C2655   1.408       .  A
C2655      C2656   1.402       .  A
C2655      C2660   1.506       .  S
C2656      C2657   1.408       .  A
C2656      H2661   1.084       .  S
C2657      C2658   1.423       .  A
C2658      C2662   1.509       .  S
C2659      C2664   1.410       .  A
C2659      C2668   1.399       .  A
C2660      H2676   1.110       .  S
C2660      H2677   1.110       .  S
C2660      H2678   1.111       .  S
C2662      H2673   1.111       .  S
C2662      H2674   1.110       .  S
C2662      H2675   1.111       .  S
C2664      C2665   1.404       .  A
C2664      C2669   1.506       .  S
C2665      C2666   1.404       .  A
C2665      H2670   1.084       .  S
C2666      C2667   1.417       .  A
C2667      C2668   1.402       .  A
C2667      C2671   1.508       .  S
C2668      H2672   1.085       .  S
C2669      H2679   1.111       .  S
C2669      H2680   1.110       .  S
C2669      H2681   1.110       .  S
C2671      H2682   1.110       .  S
C2671      H2683   1.107       .  S
C2671      H2684   1.111       .  S
C2685      C2686   1.399       .  A
C2685      C2690   1.405       .  A
C2685      H2695   1.084       .  S
C2686      C2691   1.479       .  S
C2686      C2687   1.408   1_655  A
C2687      C2688   1.403       .  A
C2687      C2692   1.507       .  S
C2688      C2689   1.409   1_455  A
C2688      H2693   1.084       .  S
C2689      C2690   1.420       .  A
C2690      C2694   1.507       .  S
C2691      C2696   1.411       .  A
C2691      C2700   1.401       .  A
C2692      H2708   1.110       .  S
C2692      H2709   1.110       .  S
C2692      H2710   1.111       .  S
C2694      H2705   1.111       .  S
C2694      H2706   1.109       .  S
C2694      H2707   1.110       .  S
C2696      C2697   1.403       .  A
C2696      C2701   1.507   1_655  S
C2697      C2698   1.403       .  A
C2697      H2702   1.085   1_655  S
C2698      C2699   1.415       .  A
C2699      C2700   1.402       .  A
C2699      C2703   1.510       .  S
C2700      H2704   1.084       .  S
C2701      H2711   1.111       .  S
C2701      H2712   1.110   1_455  S
C2701      H2713   1.110       .  S
C2703      H2714   1.110       .  S
C2703      H2715   1.108       .  S
C2703      H2716   1.110       .  S
C2717      C2718   1.401       .  A
C2717      C2722   1.405       .  A
C2717      H2727   1.084       .  S
C2718      C2723   1.483       .  S
C2718      C2719   1.410       .  A
C2719      C2720   1.405       .  A
C2719      C2724   1.507       .  S
C2720      C2721   1.406       .  A
C2720      H2725   1.084       .  S
C2721      C2722   1.417       .  A
C2722      C2726   1.507       .  S
C2723      C2728   1.411       .  A
C2723      C2732   1.401       .  A
C2724      H2740   1.110       .  S
C2724      H2741   1.109       .  S
C2724      H2742   1.111       .  S
C2726      H2737   1.111       .  S
C2726      H2738   1.109       .  S
C2726      H2739   1.110       .  S
C2728      C2729   1.403       .  A
C2728      C2733   1.507       .  S
C2729      C2730   1.404       .  A
C2729      H2734   1.081       .  S
C2730      C2731   1.421       .  A
C2731      C2732   1.406       .  A
C2731      C2735   1.508       .  S
C2732      H2736   1.084       .  S
C2733      H2743   1.109       .  S
C2733      H2744   1.110       .  S
C2733      H2745   1.108       .  S
C2735      H2746   1.110       .  S
C2735      H2747   1.106       .  S
C2735      H2748   1.111       .  S
C2749      C2750   1.400       .  A
C2749      C2754   1.404       .  A
C2749      H2759   1.084       .  S
C2750      C2755   1.480       .  S
C2750      C2751   1.410       .  A
C2751      C2752   1.402       .  A
C2751      C2756   1.507       .  S
C2752      C2753   1.407       .  A
C2752      H2757   1.084       .  S
C2753      C2754   1.418       .  A
C2754      C2758   1.508       .  S
C2755      C2760   1.411       .  A
C2755      C2764   1.399       .  A
C2756      H2772   1.110       .  S
C2756      H2773   1.110       .  S
C2756      H2774   1.111       .  S
C2758      H2769   1.109   1_455  S
C2758      H2770   1.111       .  S
C2758      H2771   1.110       .  S
C2760      C2761   1.405       .  A
C2760      C2765   1.506       .  S
C2761      C2762   1.405       .  A
C2761      H2766   1.084       .  S
C2762      C2763   1.419       .  A
C2763      C2764   1.403       .  A
C2763      C2767   1.508       .  S
C2764      H2768   1.084       .  S
C2765      H2775   1.111       .  S
C2765      H2776   1.110       .  S
C2765      H2777   1.110       .  S
C2767      H2778   1.111       .  S
C2767      H2779   1.110       .  S
C2767      H2780   1.108       .  S
C2781      C2782   1.398       .  A
C2781      C2786   1.395       .  A
C2781      H2791   1.085       .  S
C2782      C2787   1.471       .  S
C2782      C2783   1.408       .  A
C2783      C2784   1.404       .  A
C2783      C2788   1.506       .  S
C2784      C2785   1.406       .  A
C2784      H2789   1.084       .  S
C2785      C2786   1.416       .  A
C2786      C2790   1.511       .  S
C2787      C2792   1.410       .  A
C2787      C2796   1.399       .  A
C2788      H2804   1.110       .  S
C2788      H2805   1.110       .  S
C2788      H2806   1.111       .  S
C2790      H2801   1.111       .  S
C2790      H2802   1.110       .  S
C2790      H2803   1.105       .  S
C2792      C2793   1.398       .  A
C2792      C2797   1.508       .  S
C2793      C2794   1.405       .  A
C2793      H2798   1.084       .  S
C2794      C2795   1.415       .  A
C2795      C2796   1.401       .  A
C2795      C2799   1.507       .  S
C2796      H2800   1.084       .  S
C2797      H2807   1.111       .  S
C2797      H2808   1.110       .  S
C2797      H2809   1.110       .  S
C2799      H2810   1.110       .  S
C2799      H2811   1.107       .  S
C2799      H2812   1.111       .  S
C2813      C2814   1.397       .  A
C2813      C2818   1.398       .  A
C2813      H2823   1.085       .  S
C2814      C2819   1.466       .  S
C2814      C2815   1.406       .  A
C2815      C2816   1.398       .  A
C2815      C2820   1.506       .  S
C2816      C2817   1.405       .  A
C2816      H2821   1.083       .  S
C2817      C2818   1.418       .  A
C2818      C2822   1.509       .  S
C2819      C2824   1.408       .  A
C2819      C2828   1.399       .  A
C2820      H2836   1.110       .  S
C2820      H2837   1.110       .  S
C2820      H2838   1.111       .  S
C2822      H2833   1.111       .  S
C2822      H2834   1.109       .  S
C2822      H2835   1.110       .  S
C2824      C2825   1.396       .  A
C2824      C2829   1.508       .  S
C2825      C2826   1.398       .  A
C2825      H2830   1.075       .  S
C2826      C2827   1.414       .  A
C2827      C2828   1.399       .  A
C2827      C2831   1.507       .  S
C2828      H2832   1.085       .  S
C2829      H2839   1.111       .  S
C2829      H2840   1.110       .  S
C2829      H2841   1.110       .  S
C2831      H2842   1.110       .  S
C2831      H2843   1.107       .  S
C2831      H2844   1.110       .  S
C2845      C2846   1.399       .  A
C2845      C2850   1.407       .  A
C2845      H2855   1.084       .  S
C2846      C2851   1.481       .  S
C2846      C2847   1.406       .  A
C2847      C2848   1.402       .  A
C2847      C2852   1.507       .  S
C2848      C2849   1.412       .  A
C2848      H2853   1.083       .  S
C2849      C2850   1.424       .  A
C2850      C2854   1.507       .  S
C2851      C2856   1.412       .  A
C2851      C2860   1.403       .  A
C2852      H2868   1.110       .  S
C2852      H2869   1.110       .  S
C2852      H2870   1.111       .  S
C2854      H2865   1.110       .  S
C2854      H2866   1.111       .  S
C2854      H2867   1.110       .  S
C2856      C2857   1.404       .  A
C2856      C2861   1.505       .  S
C2857      C2858   1.402       .  A
C2857      H2862   1.084       .  S
C2858      C2859   1.411       .  A
C2859      C2860   1.403       .  A
C2859      C2863   1.508       .  S
C2860      H2864   1.084       .  S
C2861      H2871   1.110       .  S
C2861      H2872   1.110       .  S
C2861      H2873   1.110       .  S
C2863      H2874   1.111       .  S
C2863      H2875   1.110       .  S
C2863      H2876   1.110       .  S
C2877      C2878   1.404       .  A
C2877      C2882   1.406       .  A
C2877      H2887   1.084       .  S
C2878      C2883   1.481       .  S
C2878      C2879   1.414       .  A
C2879      C2880   1.398       .  A
C2879      C2884   1.510   1_554  S
C2880      C2881   1.404       .  A
C2880      H2885   1.086   1_554  S
C2881      C2882   1.413       .  A
C2882      C2886   1.508       .  S
C2883      C2888   1.409       .  A
C2883      C2892   1.398       .  A
C2884      H2900   1.107       .  S
C2884      H2901   1.111       .  S
C2884      H2902   1.110       .  S
C2886      H2897   1.111       .  S
C2886      H2898   1.110       .  S
C2886      H2899   1.108       .  S
C2888      C2889   1.403   1_554  A
C2888      C2893   1.507   1_554  S
C2889      C2890   1.409   1_556  A
C2889      H2894   1.083       .  S
C2890      C2891   1.425       .  A
C2891      C2892   1.405       .  A
C2891      C2895   1.508       .  S
C2892      H2896   1.084       .  S
C2893      H2903   1.111       .  S
C2893      H2904   1.110   1_556  S
C2893      H2905   1.109       .  S
C2895      H2906   1.110       .  S
C2895      H2907   1.110       .  S
C2895      H2908   1.111       .  S
C2909      C2910   1.399       .  A
C2909      C2914   1.405       .  A
C2909      H2919   1.084       .  S
C2910      C2915   1.477       .  S
C2910      C2911   1.408       .  A
C2911      C2912   1.400       .  A
C2911      C2916   1.507       .  S
C2912      C2913   1.406       .  A
C2912      H2917   1.082       .  S
C2913      C2914   1.420       .  A
C2914      C2918   1.508   1_554  S
C2915      C2920   1.410       .  A
C2915      C2924   1.399       .  A
C2916      H2932   1.110       .  S
C2916      H2933   1.110       .  S
C2916      H2934   1.111       .  S
C2918      H2929   1.109       .  S
C2918      H2930   1.111       .  S
C2918      H2931   1.110   1_556  S
C2920      C2921   1.402       .  A
C2920      C2925   1.506       .  S
C2921      C2922   1.404       .  A
C2921      H2926   1.084       .  S
C2922      C2923   1.417       .  A
C2923      C2924   1.402       .  A
C2923      C2927   1.507       .  S
C2924      H2928   1.084       .  S
C2925      H2935   1.111   1_554  S
C2925      H2936   1.110   1_554  S
C2925      H2937   1.110       .  S
C2927      H2938   1.111       .  S
C2927      H2939   1.110       .  S
C2927      H2940   1.108       .  S
C2941      C2942   1.401       .  A
C2941      C2946   1.401       .  A
C2941      H2951   1.085       .  S
C2942      C2947   1.473       .  S
C2942      C2943   1.410       .  A
C2943      C2944   1.399       .  A
C2943      C2948   1.507       .  S
C2944      C2945   1.400       .  A
C2944      H2949   1.085       .  S
C2945      C2946   1.415       .  A
C2946      C2950   1.509       .  S
C2947      C2952   1.407       .  A
C2947      C2956   1.397       .  A
C2948      H2964   1.110       .  S
C2948      H2965   1.110       .  S
C2948      H2966   1.111       .  S
C2950      H2961   1.110       .  S
C2950      H2962   1.111       .  S
C2950      H2963   1.107       .  S
C2952      C2953   1.401       .  A
C2952      C2957   1.506       .  S
C2953      C2954   1.407       .  A
C2953      H2958   1.084       .  S
C2954      C2955   1.423       .  A
C2955      C2956   1.401       .  A
C2955      C2959   1.509       .  S
C2956      H2960   1.084       .  S
C2957      H2967   1.111       .  S
C2957      H2968   1.110       .  S
C2957      H2969   1.110       .  S
C2959      H2970   1.111       .  S
C2959      H2971   1.110       .  S
C2959      H2972   1.109       .  S
C2973      C2974   1.401       .  A
C2973      C2978   1.405       .  A
C2973      H2983   1.084       .  S
C2974      C2979   1.483       .  S
C2974      C2975   1.410       .  A
C2975      C2976   1.403       .  A
C2975      C2980   1.507       .  S
C2976      C2977   1.406       .  A
C2976      H2981   1.084       .  S
C2977      C2978   1.420       .  A
C2978      C2982   1.508       .  S
C2979      C2984   1.411       .  A
C2979      C2988   1.400       .  A
C2980      H2996   1.109       .  S
C2980      H2997   1.110       .  S
C2980      H2998   1.111       .  S
C2982      H2993   1.111       .  S
C2982      H2994   1.110       .  S
C2982      H2995   1.110       .  S
C2984      C2985   1.404       .  A
C2984      C2989   1.507       .  S
C2985      C2986   1.407       .  A
C2985      H2990   1.083       .  S
C2986      C2987   1.419       .  A
C2987      C2988   1.402       .  A
C2987      C2991   1.509   1_455  S
C2988      H2992   1.084   1_455  S
C2989      H2999   1.111       .  S
C2989      H3000   1.109       .  S
C2989      H3001   1.110       .  S
C2991      H3002   1.110       .  S
C2991      H3003   1.110       .  S
C2991      H3004   1.111       .  S
C3005      C3006   1.401       .  A
C3005      C3010   1.403       .  A
C3005      H3015   1.085       .  S
C3006      C3011   1.478       .  S
C3006      C3007   1.408       .  A
C3007      C3008   1.402       .  A
C3007      C3012   1.506       .  S
C3008      C3009   1.406       .  A
C3008      H3013   1.084       .  S
C3009      C3010   1.418       .  A
C3010      C3014   1.509       .  S
C3011      C3016   1.411       .  A
C3011      C3020   1.400       .  A
C3012      H3028   1.110       .  S
C3012      H3029   1.110       .  S
C3012      H3030   1.111       .  S
C3014      H3025   1.111       .  S
C3014      H3026   1.110       .  S
C3014      H3027   1.105       .  S
C3016      C3017   1.402       .  A
C3016      C3021   1.507       .  S
C3017      C3018   1.404       .  A
C3017      H3022   1.084       .  S
C3018      C3019   1.417       .  A
C3019      C3020   1.403       .  A
C3019      C3023   1.507       .  S
C3020      H3024   1.084       .  S
C3021      H3031   1.111       .  S
C3021      H3032   1.110       .  S
C3021      H3033   1.110       .  S
C3023      H3034   1.110       .  S
C3023      H3035   1.108       .  S
C3023      H3036   1.111       .  S
C3037      C3038   1.401       .  A
C3037      C3042   1.405       .  A
C3037      H3047   1.084       .  S
C3038      C3043   1.476       .  S
C3038      C3039   1.408       .  A
C3039      C3040   1.400       .  A
C3039      C3044   1.507       .  S
C3040      C3041   1.405       .  A
C3040      H3045   1.084       .  S
C3041      C3042   1.415       .  A
C3042      C3046   1.507       .  S
C3043      C3048   1.410       .  A
C3043      C3052   1.401       .  A
C3044      H3060   1.110       .  S
C3044      H3061   1.110       .  S
C3044      H3062   1.111       .  S
C3046      H3057   1.111       .  S
C3046      H3058   1.109       .  S
C3046      H3059   1.111       .  S
C3048      C3049   1.401       .  A
C3048      C3053   1.507       .  S
C3049      C3050   1.403       .  A
C3049      H3054   1.085       .  S
C3050      C3051   1.416       .  A
C3051      C3052   1.402       .  A
C3051      C3055   1.510       .  S
C3052      H3056   1.085       .  S
C3053      H3063   1.111       .  S
C3053      H3064   1.110       .  S
C3053      H3065   1.110       .  S
C3055      H3066   1.110       .  S
C3055      H3067   1.108       .  S
C3055      H3068   1.111       .  S
C3069      C3070   1.399       .  A
C3069      C3074   1.400       .  A
C3069      H3079   1.084       .  S
C3070      C3075   1.472       .  S
C3070      C3071   1.409       .  A
C3071      C3072   1.401       .  A
C3071      C3076   1.506   1_655  S
C3072      C3073   1.404       .  A
C3072      H3077   1.084       .  S
C3073      C3074   1.415       .  A
C3074      C3078   1.508       .  S
C3075      C3080   1.407       .  A
C3075      C3084   1.399   1_655  A
C3076      H3092   1.110       .  S
C3076      H3093   1.109       .  S
C3076      H3094   1.111       .  S
C3078      H3089   1.111       .  S
C3078      H3090   1.109       .  S
C3078      H3091   1.110       .  S
C3080      C3081   1.400   1_655  A
C3080      C3085   1.507       .  S
C3081      C3082   1.407       .  A
C3081      H3086   1.083       .  S
C3082      C3083   1.416       .  A
C3083      C3084   1.403       .  A
C3083      C3087   1.507       .  S
C3084      H3088   1.084       .  S
C3085      H3095   1.111       .  S
C3085      H3096   1.110       .  S
C3085      H3097   1.110       .  S
C3087      H3098   1.109       .  S
C3087      H3099   1.110       .  S
C3087      H3100   1.111       .  S
C3101      C3102   1.401       .  A
C3101      C3106   1.402       .  A
C3101      H3111   1.085       .  S
C3102      C3107   1.479       .  S
C3102      C3103   1.410       .  A
C3103      C3104   1.404       .  A
C3103      C3108   1.506       .  S
C3104      C3105   1.403       .  A
C3104      H3109   1.084       .  S
C3105      C3106   1.416       .  A
C3106      C3110   1.508       .  S
C3107      C3112   1.407       .  A
C3107      C3116   1.402       .  A
C3108      H3124   1.110       .  S
C3108      H3125   1.109       .  S
C3108      H3126   1.111       .  S
C3110      H3121   1.111       .  S
C3110      H3122   1.110       .  S
C3110      H3123   1.108       .  S
C3112      C3113   1.398       .  A
C3112      C3117   1.508       .  S
C3113      C3114   1.410       .  A
C3113      H3118   1.084       .  S
C3114      C3115   1.420       .  A
C3115      C3116   1.408       .  A
C3115      C3119   1.507       .  S
C3116      H3120   1.084       .  S
C3117      H3127   1.111       .  S
C3117      H3128   1.110       .  S
C3117      H3129   1.109       .  S
C3119      H3130   1.109       .  S
C3119      H3131   1.110       .  S
C3119      H3132   1.111       .  S
C3133      C3134   1.398       .  A
C3133      C3138   1.403       .  A
C3133      H3143   1.084       .  S
C3134      C3139   1.481       .  S
C3134      C3135   1.409       .  A
C3135      C3136   1.404       .  A
C3135      C3140   1.507       .  S
C3136      C3137   1.409       .  A
C3136      H3141   1.084       .  S
C3137      C3138   1.423       .  A
C3138      C3142   1.507       .  S
C3139      C3144   1.411       .  A
C3139      C3148   1.402       .  A
C3140      H3156   1.110       .  S
C3140      H3157   1.110       .  S
C3140      H3158   1.111       .  S
C3142      H3153   1.109       .  S
C3142      H3154   1.111       .  S
C3142      H3155   1.109       .  S
C3144      C3145   1.400       .  A
C3144      C3149   1.507       .  S
C3145      C3146   1.402       .  A
C3145      H3150   1.085       .  S
C3146      C3147   1.415       .  A
C3147      C3148   1.404       .  A
C3147      C3151   1.508       .  S
C3148      H3152   1.084       .  S
C3149      H3159   1.111       .  S
C3149      H3160   1.109       .  S
C3149      H3161   1.110       .  S
C3151      H3162   1.110       .  S
C3151      H3163   1.107       .  S
C3151      H3164   1.110       .  S
C3165      C3166   1.399       .  A
C3165      C3170   1.402       .  A
C3165      H3175   1.084       .  S
C3166      C3171   1.477       .  S
C3166      C3167   1.409       .  A
C3167      C3168   1.402       .  A
C3167      C3172   1.506       .  S
C3168      C3169   1.405       .  A
C3168      H3173   1.084       .  S
C3169      C3170   1.421       .  A
C3170      C3174   1.510       .  S
C3171      C3176   1.409       .  A
C3171      C3180   1.398       .  A
C3172      H3188   1.110       .  S
C3172      H3189   1.110       .  S
C3172      H3190   1.111       .  S
C3174      H3185   1.111       .  S
C3174      H3186   1.111       .  S
C3174      H3187   1.110       .  S
C3176      C3177   1.404       .  A
C3176      C3181   1.505       .  S
C3177      C3178   1.405       .  A
C3177      H3182   1.084       .  S
C3178      C3179   1.420       .  A
C3179      C3180   1.402       .  A
C3179      C3183   1.509       .  S
C3180      H3184   1.084       .  S
C3181      H3191   1.110       .  S
C3181      H3192   1.110       .  S
C3181      H3193   1.110       .  S
C3183      H3194   1.111       .  S
C3183      H3195   1.110       .  S
C3183      H3196   1.108       .  S
C3197      C3198   1.403       .  A
C3197      C3202   1.406   1_545  A
C3197      H3207   1.085       .  S
C3198      C3203   1.484       .  S
C3198      C3199   1.409   1_545  A
C3199      C3200   1.404       .  A
C3199      C3204   1.506       .  S
C3200      C3201   1.405       .  A
C3200      H3205   1.084       .  S
C3201      C3202   1.418       .  A
C3202      C3206   1.508       .  S
C3203      C3208   1.411       .  A
C3203      C3212   1.401       .  A
C3204      H3220   1.110       .  S
C3204      H3221   1.110       .  S
C3204      H3222   1.111       .  S
C3206      H3217   1.111   1_565  S
C3206      H3218   1.110       .  S
C3206      H3219   1.106       .  S
C3208      C3209   1.404       .  A
C3208      C3213   1.507       .  S
C3209      C3210   1.405       .  A
C3209      H3214   1.084       .  S
C3210      C3211   1.417       .  A
C3211      C3212   1.407       .  A
C3211      C3215   1.505       .  S
C3212      H3216   1.084       .  S
C3213      H3223   1.111       .  S
C3213      H3224   1.110       .  S
C3213      H3225   1.110       .  S
C3215      H3226   1.110       .  S
C3215      H3227   1.108       .  S
C3215      H3228   1.111       .  S
C3229      C3230   1.398       .  A
C3229      C3234   1.403       .  A
C3229      H3239   1.084       .  S
C3230      C3235   1.476       .  S
C3230      C3231   1.408       .  A
C3231      C3232   1.403       .  A
C3231      C3236   1.506       .  S
C3232      C3233   1.407       .  A
C3232      H3237   1.084       .  S
C3233      C3234   1.421       .  A
C3234      C3238   1.509       .  S
C3235      C3240   1.410       .  A
C3235      C3244   1.400       .  A
C3236      H3252   1.110       .  S
C3236      H3253   1.110       .  S
C3236      H3254   1.111       .  S
C3238      H3249   1.108       .  S
C3238      H3250   1.111       .  S
C3238      H3251   1.110       .  S
C3240      C3241   1.401       .  A
C3240      C3245   1.506       .  S
C3241      C3242   1.403       .  A
C3241      H3246   1.084       .  S
C3242      C3243   1.416       .  A
C3243      C3244   1.402       .  A
C3243      C3247   1.506       .  S
C3244      H3248   1.085       .  S
C3245      H3255   1.111       .  S
C3245      H3256   1.110       .  S
C3245      H3257   1.110       .  S
C3247      H3258   1.111       .  S
C3247      H3259   1.106       .  S
C3247      H3260   1.110       .  S
C3261      C3262   1.402       .  A
C3261      C3266   1.404       .  A
C3261      H3271   1.084       .  S
C3262      C3267   1.479       .  S
C3262      C3263   1.409       .  A
C3263      C3264   1.403       .  A
C3263      C3268   1.506       .  S
C3264      C3265   1.404       .  A
C3264      H3269   1.084       .  S
C3265      C3266   1.414       .  A
C3266      C3270   1.507       .  S
C3267      C3272   1.407       .  A
C3267      C3276   1.399       .  A
C3268      H3284   1.110       .  S
C3268      H3285   1.110       .  S
C3268      H3286   1.111       .  S
C3270      H3281   1.110       .  S
C3270      H3282   1.111       .  S
C3270      H3283   1.110       .  S
C3272      C3273   1.403       .  A
C3272      C3277   1.506       .  S
C3273      C3274   1.409       .  A
C3273      H3278   1.084       .  S
C3274      C3275   1.422       .  A
C3275      C3276   1.404       .  A
C3275      C3279   1.509       .  S
C3276      H3280   1.084       .  S
C3277      H3287   1.111       .  S
C3277      H3288   1.110       .  S
C3277      H3289   1.110       .  S
C3279      H3290   1.111       .  S
C3279      H3291   1.110       .  S
C3279      H3292   1.110       .  S
C3293      C3294   1.400       .  A
C3293      C3298   1.407       .  A
C3293      H3303   1.084       .  S
C3294      C3299   1.485       .  S
C3294      C3295   1.409       .  A
C3295      C3296   1.403       .  A
C3295      C3300   1.507   1_655  S
C3296      C3297   1.409       .  A
C3296      H3301   1.083   1_655  S
C3297      C3298   1.424       .  A
C3298      C3302   1.508       .  S
C3299      C3304   1.413       .  A
C3299      C3308   1.402       .  A
C3300      H3316   1.110       .  S
C3300      H3317   1.110       .  S
C3300      H3318   1.111       .  S
C3302      H3313   1.111       .  S
C3302      H3314   1.110       .  S
C3302      H3315   1.109       .  S
C3304      C3305   1.405       .  A
C3304      C3309   1.506       .  S
C3305      C3306   1.403       .  A
C3305      H3310   1.084   1_545  S
C3306      C3307   1.415       .  A
C3307      C3308   1.404       .  A
C3307      C3311   1.508       .  S
C3308      H3312   1.084       .  S
C3309      H3319   1.111   1_545  S
C3309      H3320   1.110       .  S
C3309      H3321   1.110       .  S
C3311      H3322   1.111       .  S
C3311      H3323   1.107       .  S
C3311      H3324   1.110   1_655  S
C3325      C3326   1.402       .  A
C3325      C3330   1.406       .  A
C3325      H3335   1.084       .  S
C3326      C3331   1.482       .  S
C3326      C3327   1.409       .  A
C3327      C3328   1.403       .  A
C3327      C3332   1.506       .  S
C3328      C3329   1.406       .  A
C3328      H3333   1.084   1_565  S
C3329      C3330   1.416       .  A
C3330      C3334   1.506       .  S
C3331      C3336   1.411       .  A
C3331      C3340   1.401       .  A
C3332      H3348   1.110       .  S
C3332      H3349   1.110       .  S
C3332      H3350   1.111       .  S
C3334      H3345   1.109       .  S
C3334      H3346   1.110       .  S
C3334      H3347   1.110       .  S
C3336      C3337   1.403       .  A
C3336      C3341   1.507       .  S
C3337      C3338   1.404       .  A
C3337      H3342   1.084       .  S
C3338      C3339   1.417       .  A
C3339      C3340   1.407       .  A
C3339      C3343   1.508       .  S
C3340      H3344   1.084       .  S
C3341      H3351   1.111       .  S
C3341      H3352   1.110       .  S
C3341      H3353   1.110       .  S
C3343      H3354   1.109       .  S
C3343      H3355   1.111       .  S
C3343      H3356   1.111       .  S
C3357      C3358   1.400       .  A
C3357      C3362   1.403       .  A
C3357      H3367   1.084       .  S
C3358      C3363   1.478       .  S
C3358      C3359   1.410       .  A
C3359      C3360   1.404       .  A
C3359      C3364   1.506       .  S
C3360      C3361   1.405       .  A
C3360      H3365   1.084       .  S
C3361      C3362   1.415       .  A
C3362      C3366   1.507       .  S
C3363      C3368   1.411       .  A
C3363      C3372   1.399       .  A
C3364      H3380   1.110       .  S
C3364      H3381   1.110       .  S
C3364      H3382   1.111       .  S
C3366      H3377   1.110       .  S
C3366      H3378   1.111       .  S
C3366      H3379   1.109       .  S
C3368      C3369   1.403       .  A
C3368      C3373   1.506       .  S
C3369      C3370   1.403       .  A
C3369      H3374   1.084       .  S
C3370      C3371   1.418       .  A
C3371      C3372   1.401       .  A
C3371      C3375   1.508       .  S
C3372      H3376   1.085       .  S
C3373      H3383   1.111       .  S
C3373      H3384   1.110       .  S
C3373      H3385   1.110       .  S
C3375      H3386   1.110       .  S
C3375      H3387   1.105       .  S
C3375      H3388   1.111       .  S
C3389      C3390   1.399       .  A
C3389      C3394   1.404       .  A
C3389      H3399   1.084       .  S
C3390      C3395   1.482       .  S
C3390      C3391   1.410       .  A
C3391      C3392   1.404       .  A
C3391      C3396   1.507       .  S
C3392      C3393   1.407       .  A
C3392      H3397   1.084       .  S
C3393      C3394   1.421       .  A
C3394      C3398   1.508       .  S
C3395      C3400   1.411       .  A
C3395      C3404   1.401       .  A
C3396      H3412   1.109       .  S
C3396      H3413   1.110       .  S
C3396      H3414   1.111       .  S
C3398      H3409   1.110       .  S
C3398      H3410   1.111       .  S
C3398      H3411   1.110       .  S
C3400      C3401   1.403       .  A
C3400      C3405   1.507       .  S
C3401      C3402   1.404       .  A
C3401      H3406   1.084       .  S
C3402      C3403   1.418       .  A
C3403      C3404   1.404       .  A
C3403      C3407   1.508       .  S
C3404      H3408   1.084       .  S
C3405      H3415   1.111       .  S
C3405      H3416   1.109       .  S
C3405      H3417   1.110       .  S
C3407      H3418   1.110       .  S
C3407      H3419   1.109       .  S
C3407      H3420   1.111       .  S
