geometry optimzed in LAMMPS
_audit_creation_date              2020-11-30 
_audit_creation_method            'lammps2cif' 
_symmetry_space_group_name_H-M    'P1' 
_symmetry_Int_Tables_number       1 
_symmetry_cell_setting            triclinic 
loop_ 
_symmetry_equiv_pos_as_xyz 
  x,y,z 
_cell_length_a                    37.62629916 
_cell_length_b                    38.03376108800598 
_cell_length_c                    34.003811986616704 
_cell_angle_alpha                 89.86018255778653 
_cell_angle_beta                  90.13346999875755 
_cell_angle_gamma                 124.65387150694583 
loop_ 
_atom_site_label 
_atom_site_type_symbol 
_atom_site_fract_x 
_atom_site_fract_y 
_atom_site_fract_z 
_atom_site_charge 
C1          C  0.35388288  0.17317376  0.45098510     0.31400
C2          C  0.35402857  0.17200947  0.03079643     0.31400
C3          C  0.37414926  0.15203250  0.47003443    -0.04800
C4          C  0.37820426  0.21746555  0.47088815    -0.05600
C5          C  0.30901517  0.15050085  0.47052884    -0.05400
C6          C  0.37428816  0.15140246  0.01068143    -0.04800
C7          C  0.37824619  0.21689442  0.01182182    -0.05600
C8          C  0.30889738  0.14975491  0.01139695    -0.05400
C9          C  0.39576245  0.13326499  0.02215871    -0.30800
N10         N  0.40854153  0.12317702  0.48928746     0.15700
C11         C  0.39551405  0.13439106  0.45727922    -0.30800
H12         H  0.40143591  0.13029825  0.42704061     0.17600
C13         C  0.39851596  0.25877836  0.02425509    -0.29800
N14         N  0.41135493  0.28431290  0.99213107     0.14400
C15         C  0.39847737  0.25963815  0.45944901    -0.29800
C16         C  0.26649916  0.13162274  0.02318878    -0.30100
N17         N  0.24146649  0.12107251  0.49064257     0.14900
H18         H  0.25465686  0.12708767  0.05300623     0.17500
C19         C  0.26700958  0.13315054  0.45846634    -0.30100
H20         H  0.25566210  0.13007751  0.42857965     0.17500
H21         H  0.40248840  0.27161405  0.42974769     0.17500
H22         H  0.40190594  0.12811878  0.05201752     0.17600
H23         H  0.40254822  0.26996854  0.05422773     0.17500
C24         C  0.35297599  0.17218677  0.20085727     0.31400
C25         C  0.35251091  0.17201051  0.28067026     0.31400
C26         C  0.37349718  0.15173608  0.22069736    -0.04800
C27         C  0.37659668  0.21668962  0.22027335    -0.05600
C28         C  0.30787522  0.14913478  0.22002822    -0.05400
C29         C  0.37338169  0.15158584  0.26133755    -0.04800
C30         C  0.37627528  0.21659545  0.26118033    -0.05600
C31         C  0.30748733  0.14894887  0.26094073    -0.05400
C32         C  0.39460871  0.13334903  0.27344049    -0.30800
N33         N  0.40744819  0.12279943  0.24089489     0.15700
C34         C  0.39466510  0.13373929  0.20855153    -0.30800
H35         H  0.40054148  0.12911937  0.17846797     0.17600
C36         C  0.39609432  0.25855932  0.27313511    -0.29800
N37         N  0.40911438  0.28374654  0.24076498     0.14400
C38         C  0.39674385  0.25872229  0.20833724    -0.29800
C39         C  0.26501566  0.13075277  0.27239304    -0.30100
N40         N  0.24016483  0.11956640  0.23966084     0.14900
H41         H  0.25302898  0.12680791  0.30209036     0.16500
C42         C  0.26587699  0.13128623  0.20762970    -0.30100
H43         H  0.25469646  0.12788196  0.17763218     0.17500
H44         H  0.40118909  0.27035398  0.17845403     0.17500
H45         H  0.40043734  0.12835287  0.30346723     0.17600
H46         H  0.39989495  0.27005567  0.30296473     0.17500
O47         O  0.08805061  0.01319904  0.48685466    -0.78700
O48         O  0.49259062  0.06952273  0.45238362    -0.78800
O49         O  0.05708340  0.10230434  0.40584897    -0.78800
O50         O  0.46374776  0.48051773  0.02113359    -0.78700
O51         O  0.99834045  0.08864489  0.37452327    -0.78800
O52         O  0.03115576  0.53161039  0.01009336    -0.78700
O53         O  0.43090137  0.01487992  0.47411136    -0.78700
O54         O  0.09577673  0.06785354  0.45345040    -0.78800
C55         C  0.11193227  0.05163617  0.47461884     1.11000
C56         C  0.45820226  0.05485695  0.47140773     1.10800
C57         C  0.03664303  0.11506217  0.38658995     1.11000
C58         C  0.50005087  0.51129753  0.03424202     1.10900
O59         O  0.49902230  0.44227435  0.49543781    -0.78700
O60         O  0.47474683  0.00865786  0.35075441    -0.78800
O61         O  0.07597161  0.51002952  0.38795110    -0.78700
O62         O  0.40467141  0.44903827  0.41620462    -0.78700
O63         O  0.42376208  0.51316951  0.39927901    -0.78800
O64         O  0.03521877  0.45929095  0.42876540    -0.78700
O65         O  0.43925121  0.41603900  0.46132448    -0.78700
O66         O  0.04291652  0.04248417  0.34350181    -0.78800
Co67       Co  0.03426395  0.49822283  0.46582507     1.51500
Co68       Co  0.48710197  0.03983997  0.40200919     1.51700
Co69       Co  0.05914261  0.04928751  0.40194264     1.51600
Co70       Co  0.43902201  0.46760211  0.46531279     1.51500
O71         O  0.99468825  0.00016526  0.43005250    -1.40700
C72         C  0.46328349  0.41041234  0.48235706     1.10900
C73         C  0.00590554  0.02112897  0.32796341     1.11000
C74         C  0.05972298  0.47277536  0.39982650     1.10900
C75         C  0.39627552  0.47318912  0.39956598     1.10900
O76         O  0.08683815  0.01300894  0.23638073    -0.78700
O77         O  0.49127802  0.06992234  0.20199029    -0.78800
O78         O  0.05575842  0.10275677  0.15539884    -0.78800
O79         O  0.46306687  0.48037727  0.27122590    -0.78700
O80         O  0.99676738  0.08825828  0.12386993    -0.78800
O81         O  0.03029710  0.53153826  0.25994683    -0.78700
O82         O  0.43017122  0.01501909  0.22461963    -0.78700
O83         O  0.09408811  0.06815247  0.20435359    -0.78800
C84         C  0.11059025  0.05161985  0.22453734     1.11000
C85         C  0.45724366  0.05500200  0.22173820     1.10800
C86         C  0.03510210  0.11496473  0.13558633     1.11000
C87         C  0.49946991  0.51111507  0.28424674     1.10900
O88         O  0.49769039  0.44186966  0.24483558    -0.78700
O89         O  0.47441106  0.00888236  0.10046541    -0.78800
O90         O  0.07635156  0.51137158  0.13909547    -0.78700
O91         O  0.40378296  0.44943799  0.16643246    -0.78700
O92         O  0.42279018  0.51343426  0.14927030    -0.78800
O93         O  0.03376384  0.45948985  0.17814245    -0.78700
O94         O  0.43810095  0.41619185  0.21070259    -0.78700
O95         O  0.04275611  0.04286563  0.09382401    -0.78800
Co96       Co  0.03303953  0.49815371  0.21557905     1.51500
Co97       Co  0.48605935  0.04001325  0.15173712     1.51700
Co98       Co  0.05843787  0.04996022  0.15236536     1.51600
Co99       Co  0.43817252  0.46780178  0.21538163     1.51500
O100        O  0.99373806  0.00055350  0.18003336    -1.40700
C101        C  0.46195929  0.41018901  0.23149895     1.10900
C102        C  0.00590776  0.02142309  0.07798053     1.11000
C103        C  0.05960246  0.47378452  0.15022151     1.10900
C104        C  0.39522097  0.47352305  0.15003462     1.10900
C105        C  0.15925130  0.35298965  0.33709134     0.31400
C106        C  0.15896756  0.35355921  0.41701181     0.31400
C107        C  0.13645253  0.37190060  0.35601399    -0.04800
C108        C  0.13603618  0.30890719  0.35709181    -0.05600
C109        C  0.20367611  0.37807780  0.35676410    -0.05400
C110        C  0.13728532  0.37302220  0.39695129    -0.04800
C111        C  0.13654223  0.30965545  0.39792118    -0.05600
C112        C  0.20365651  0.37885103  0.39758233    -0.05400
C113        C  0.11915277  0.39411017  0.40847507    -0.30800
N114        N  0.10552218  0.40365162  0.37598935     0.15700
C115        C  0.11541857  0.39020881  0.34369517    -0.30800
H116        H  0.10832529  0.39418877  0.31381443     0.17600
C117        C  0.11358219  0.26820279  0.41111041    -0.29800
N118        N  0.09870365  0.24243276  0.37927859     0.14400
C119        C  0.11145552  0.26644263  0.34617654    -0.29800
C120        C  0.24610835  0.40358597  0.40941838    -0.30100
N121        N  0.27126207  0.41638049  0.37698844     0.14900
H122        H  0.25823193  0.41150806  0.43925697     0.17500
C123        C  0.24604468  0.40124684  0.34449771    -0.30100
H124        H  0.25762216  0.40613128  0.31453191     0.17500
H125        H  0.10264701  0.25359951  0.31670266     0.17500
H126        H  0.11687562  0.40305288  0.43807029     0.17600
H127        H  0.10768606  0.25751801  0.44141288     0.17500
C128        C  0.15782024  0.35268672  0.08717505     0.31400
C129        C  0.15781821  0.35279738  0.16711484     0.31400
C130        C  0.13707459  0.37348736  0.10651753    -0.04800
C131        C  0.13417577  0.30875830  0.10682980    -0.05600
C132        C  0.20253572  0.37721700  0.10682873    -0.05400
C133        C  0.13626268  0.37261107  0.14750086    -0.04800
C134        C  0.13362898  0.30866943  0.14765949    -0.05600
C135        C  0.20207089  0.37663661  0.14763331    -0.05400
C136        C  0.11585992  0.39136924  0.15942696    -0.30800
N137        N  0.10616336  0.40503112  0.12707742     0.15700
C138        C  0.11927720  0.39504019  0.09459255    -0.30800
H139        H  0.11670796  0.40368146  0.06489860     0.17600
C140        C  0.10863873  0.26663980  0.15949746    -0.29800
N141        N  0.09563810  0.24189392  0.12702457     0.14400
C142        C  0.11075033  0.26690285  0.09455718    -0.29800
C143        C  0.24400427  0.39991599  0.16049801    -0.30100
N144        N  0.26980726  0.41497502  0.12851336     0.14900
H145        H  0.25502320  0.40541022  0.19072086     0.17500
C146        C  0.24535057  0.40202662  0.09554703    -0.30100
H147        H  0.25807647  0.41030873  0.06595320     0.17500
H148        H  0.10505124  0.25548919  0.06454469     0.17500
H149        H  0.10877128  0.39535159  0.18925725     0.17600
H150        H  0.10007315  0.25453711  0.18926558     0.17500
C151        C  0.16439917  0.32425080  0.23165228    -0.11900
C152        C  0.16097190  0.35427153  0.21115081     0.10200
C153        C  0.16859553  0.38983571  0.23178316    -0.11900
C154        C  0.16930850  0.38999575  0.27254521    -0.11900
C155        C  0.16221245  0.35452055  0.29311318     0.10200
C156        C  0.16485582  0.32427361  0.27240507    -0.11900
H157        H  0.16726803  0.30109529  0.21639754     0.14200
H158        H  0.17445991  0.41765979  0.21660849     0.14200
H159        H  0.17551547  0.41787297  0.28781199     0.14200
H160        H  0.16793898  0.30109056  0.28744448     0.14200
C161        C  0.18749419  0.34751632  0.48192799    -0.11900
C162        C  0.15739466  0.35099730  0.46110248     0.10200
C163        C  0.12161736  0.34417409  0.48153965    -0.11900
C164        C  0.12125262  0.34378317  0.02228411    -0.11900
C165        C  0.15658164  0.35003674  0.04315938     0.10200
C166        C  0.18706630  0.34699790  0.02271278    -0.11900
H167        H  0.21104202  0.34473355  0.46685049     0.14200
H168        H  0.09353375  0.33836460  0.46625018     0.14200
H169        H  0.09308101  0.33802098  0.03725902     0.14200
H170        H  0.21032638  0.34387330  0.03805482     0.14200
C171        C  0.05429645  0.15946223  0.13033581    -0.11900
C172        C  0.07255371  0.19744446  0.12768804    -0.13400
C173        C  0.35265695  0.45556064  0.13571091    -0.11900
C174        C  0.31468560  0.43776953  0.13005409    -0.13400
C175        C  0.07324204  0.44872429  0.13418185    -0.11900
C176        C  0.08778626  0.42817182  0.12817931    -0.13400
C177        C  0.05614022  0.15978780  0.38251543    -0.11900
C178        C  0.07503048  0.19791773  0.38052943    -0.13400
C179        C  0.35396240  0.45528456  0.38434432    -0.11900
C180        C  0.31611593  0.43815595  0.37820139    -0.13400
C181        C  0.07239343  0.44711976  0.38315614    -0.11900
C182        C  0.08674469  0.42644273  0.37677812    -0.13400
C183        C  0.44505800  0.08271573  0.23502076    -0.11900
C184        C  0.42891576  0.10227966  0.23989556    -0.13400
C185        C  0.43058500  0.32844779  0.24067542    -0.11900
C186        C  0.44763352  0.36664667  0.23886771    -0.13400
C187        C  0.19487373  0.09781482  0.23844229    -0.11900
C188        C  0.15598891  0.07764839  0.23454604    -0.13400
C189        C  0.44595230  0.08283151  0.48363603    -0.11900
C190        C  0.42996016  0.10260983  0.48797069    -0.13400
C191        C  0.44925438  0.36707222  0.49029859    -0.11900
C192        C  0.43257203  0.32896417  0.49235212    -0.13400
C193        C  0.15718174  0.07806261  0.48533980    -0.11900
C194        C  0.19608787  0.09879584  0.48954364    -0.13400
C195        C  0.39128313  0.20330603  0.38594019    -0.11900
C196        C  0.35457180  0.17193045  0.40688110     0.10200
C197        C  0.32163412  0.13576507  0.38647375    -0.11900
C198        C  0.32116426  0.13544814  0.34569463    -0.11900
C199        C  0.35390266  0.17109506  0.32473062     0.10200
C200        C  0.39102678  0.20275940  0.34514546    -0.11900
H201        H  0.42035571  0.22791461  0.40091894     0.14200
H202        H  0.29641771  0.10752276  0.40187772     0.14200
H203        H  0.29553735  0.10708909  0.33075379     0.14200
H204        H  0.41996703  0.22698192  0.32972788     0.14200
C205        C  0.32236914  0.13442188  0.09536501    -0.11900
C206        C  0.35540622  0.17026565  0.07480236     0.10200
C207        C  0.39231207  0.20163024  0.09561300    -0.11900
C208        C  0.39182843  0.20194834  0.13640117    -0.11900
C209        C  0.35453631  0.17072943  0.15683484     0.10200
C210        C  0.32199000  0.13460784  0.13613971    -0.11900
H211        H  0.29693380  0.10620824  0.08009853     0.14200
H212        H  0.42148702  0.22592635  0.08052889     0.14200
H213        H  0.42061556  0.22645991  0.15178841     0.14200
H214        H  0.29639754  0.10639493  0.15128897     0.14200
C215        C  0.35388284  0.17317374  0.95098508     0.31400
C216        C  0.35402861  0.17200948  0.53079641     0.31400
C217        C  0.37414928  0.15203255  0.97003447    -0.04800
C218        C  0.37820416  0.21746551  0.97088811    -0.05600
C219        C  0.30901515  0.15050085  0.97052880    -0.05400
C220        C  0.37428818  0.15140244  0.51068143    -0.04800
C221        C  0.37824630  0.21689444  0.51182184    -0.05600
C222        C  0.30889742  0.14975497  0.51139698    -0.05400
C223        C  0.39576242  0.13326501  0.52215850    -0.30800
N224        N  0.40854150  0.12317704  0.98928748     0.15700
C225        C  0.39551410  0.13439107  0.95727909    -0.30800
H226        H  0.40143572  0.13029833  0.92704146     0.17600
C227        C  0.39851595  0.25877841  0.52425529    -0.29800
N228        N  0.41135497  0.28431296  0.49213115     0.14400
C229        C  0.39847737  0.25963810  0.95944890    -0.29800
C230        C  0.26649913  0.13162277  0.52318900    -0.30100
N231        N  0.24146651  0.12107255  0.99064253     0.14900
H232        H  0.25465718  0.12708788  0.55300559     0.17500
C233        C  0.26700956  0.13315061  0.95846612    -0.30100
H234        H  0.25566232  0.13007765  0.92858020     0.17500
H235        H  0.40248849  0.27161396  0.92974763     0.17500
H236        H  0.40190615  0.12811862  0.55201854     0.17600
H237        H  0.40254795  0.26996828  0.55422717     0.17500
C238        C  0.35297592  0.17218677  0.70085724     0.31400
C239        C  0.35251084  0.17201049  0.78067027     0.31400
C240        C  0.37349713  0.15173609  0.72069736    -0.04800
C241        C  0.37659658  0.21668957  0.72027338    -0.05600
C242        C  0.30787517  0.14913477  0.72002819    -0.05400
C243        C  0.37338161  0.15158585  0.76133754    -0.04800
C244        C  0.37627520  0.21659539  0.76118035    -0.05600
C245        C  0.30748726  0.14894886  0.76094070    -0.05400
C246        C  0.39460863  0.13334904  0.77344070    -0.30800
N247        N  0.40744810  0.12279941  0.74089497     0.15700
C248        C  0.39466504  0.13373926  0.70855162    -0.30800
H249        H  0.40054147  0.12911931  0.67846799     0.17600
C250        C  0.39609440  0.25855928  0.77313524    -0.29800
N251        N  0.40911450  0.28374648  0.74076505     0.14400
C252        C  0.39674392  0.25872227  0.70833728    -0.29800
C253        C  0.26501558  0.13075280  0.77239294    -0.30100
N254        N  0.24016478  0.11956644  0.73966075     0.14900
H255        H  0.25302883  0.12680789  0.80209037     0.16500
C256        C  0.26587695  0.13128625  0.70762957    -0.30100
H257        H  0.25469654  0.12788203  0.67763234     0.17500
H258        H  0.40118917  0.27035391  0.67845426     0.17500
H259        H  0.40043705  0.12835305  0.80346662     0.17600
H260        H  0.39989503  0.27005545  0.80296452     0.17500
O261        O  0.08805073  0.01319906  0.98685471    -0.78700
O262        O  0.49259068  0.06952273  0.95238371    -0.78800
O263        O  0.05708346  0.10230435  0.90584891    -0.78800
O264        O  0.46374774  0.48051774  0.52113353    -0.78700
O265        O  0.99834052  0.08864494  0.87452321    -0.78800
O266        O  0.03115570  0.53161043  0.51009327    -0.78700
O267        O  0.43090128  0.01487995  0.97411131    -0.78700
O268        O  0.09577675  0.06785351  0.95345042    -0.78800
C269        C  0.11193235  0.05163616  0.97461883     1.11000
C270        C  0.45820226  0.05485696  0.97140779     1.10800
C271        C  0.03664311  0.11506220  0.88658989     1.11000
C272        C  0.50005087  0.51129755  0.53424197     1.10900
O273        O  0.49902246  0.44227431  0.99543781    -0.78700
O274        O  0.47474679  0.00865787  0.85075434    -0.78800
O275        O  0.07597155  0.51002953  0.88795100    -0.78700
O276        O  0.40467143  0.44903828  0.91620464    -0.78700
O277        O  0.42376222  0.51316954  0.89927890    -0.78800
O278        O  0.03521895  0.45929099  0.92876538    -0.78700
O279        O  0.43925125  0.41603905  0.96132461    -0.78700
O280        O  0.04291644  0.04248416  0.84350188    -0.78800
Co281      Co  0.03426403  0.49822284  0.96582514     1.51500
Co282      Co  0.48710208  0.03984002  0.90200917     1.51700
Co283      Co  0.05914252  0.04928747  0.90194272     1.51600
Co284      Co  0.43902199  0.46760210  0.96531288     1.51500
O285        O  0.99468822  0.00016526  0.93005264    -1.40700
C286        C  0.46328357  0.41041235  0.98235711     1.10900
C287        C  0.00590553  0.02112896  0.82796339     1.11000
C288        C  0.05972308  0.47277540  0.89982641     1.10900
C289        C  0.39627561  0.47318914  0.89956590     1.10900
O290        O  0.08683821  0.01300897  0.73638062    -0.78700
O291        O  0.49127800  0.06992236  0.70199033    -0.78800
O292        O  0.05575843  0.10275676  0.65539881    -0.78800
O293        O  0.46306688  0.48037728  0.77122581    -0.78700
O294        O  0.99676750  0.08825831  0.62386977    -0.78800
O295        O  0.03029715  0.53153818  0.75994678    -0.78700
O296        O  0.43017112  0.01501911  0.72461955    -0.78700
O297        O  0.09408804  0.06815245  0.70435351    -0.78800
C298        C  0.11059025  0.05161986  0.72453719     1.11000
C299        C  0.45724363  0.05500202  0.72173827     1.10800
C300        C  0.03510219  0.11496476  0.63558625     1.11000
C301        C  0.49946991  0.51111501  0.78424669     1.10900
O302        O  0.49769035  0.44186966  0.74483547    -0.78700
O303        O  0.47441109  0.00888230  0.60046546    -0.78800
O304        O  0.07635157  0.51137160  0.63909546    -0.78700
O305        O  0.40378289  0.44943801  0.66643236    -0.78700
O306        O  0.42279019  0.51343429  0.64927019    -0.78800
O307        O  0.03376386  0.45948983  0.67814242    -0.78700
O308        O  0.43810078  0.41619179  0.71070265    -0.78700
O309        O  0.04275611  0.04286569  0.59382400    -0.78800
Co310      Co  0.03303952  0.49815368  0.71557894     1.51500
Co311      Co  0.48605940  0.04001329  0.65173709     1.51700
Co312      Co  0.05843783  0.04996024  0.65236532     1.51600
Co313      Co  0.43817245  0.46780180  0.71538155     1.51500
O314        O  0.99373805  0.00055348  0.68003334    -1.40700
C315        C  0.46195923  0.41018899  0.73149888     1.10900
C316        C  0.00590773  0.02142307  0.57798054     1.11000
C317        C  0.05960250  0.47378453  0.65022152     1.10900
C318        C  0.39522091  0.47352309  0.65003457     1.10900
C319        C  0.15925135  0.35298960  0.83709137     0.31400
C320        C  0.15896762  0.35355919  0.91701189     0.31400
C321        C  0.13645257  0.37190052  0.85601405    -0.04800
C322        C  0.13603633  0.30890718  0.85709188    -0.05600
C323        C  0.20367614  0.37807778  0.85676416    -0.05400
C324        C  0.13728539  0.37302215  0.89695134    -0.04800
C325        C  0.13654231  0.30965540  0.89792125    -0.05600
C326        C  0.20365652  0.37885103  0.89758238    -0.05400
C327        C  0.11915289  0.39411023  0.90847525    -0.30800
N328        N  0.10552234  0.40365165  0.87598933     0.15700
C329        C  0.11541871  0.39020879  0.84369524    -0.30800
H330        H  0.10832541  0.39418879  0.81381426     0.17600
C331        C  0.11358211  0.26820275  0.91111035    -0.29800
N332        N  0.09870353  0.24243272  0.87927865     0.14400
C333        C  0.11145556  0.26644258  0.84617640    -0.29800
C334        C  0.24610838  0.40358604  0.90941859    -0.30100
N335        N  0.27126211  0.41638051  0.87698850     0.14900
H336        H  0.25823162  0.41150795  0.93925635     0.17500
C337        C  0.24604470  0.40124687  0.84449781    -0.30100
H338        H  0.25762229  0.40613141  0.81453189     0.17500
H339        H  0.10264733  0.25359989  0.81670350     0.17500
H340        H  0.11687578  0.40305269  0.93806963     0.17600
H341        H  0.10768580  0.25751772  0.94141344     0.17500
C342        C  0.15782025  0.35268674  0.58717500     0.31400
C343        C  0.15781818  0.35279738  0.66711482     0.31400
C344        C  0.13707454  0.37348732  0.60651747    -0.04800
C345        C  0.13417583  0.30875833  0.60682980    -0.05600
C346        C  0.20253570  0.37721706  0.60682873    -0.05400
C347        C  0.13626263  0.37261103  0.64750080    -0.04800
C348        C  0.13362901  0.30866944  0.64765948    -0.05600
C349        C  0.20207090  0.37663666  0.64763332    -0.05400
C350        C  0.11585991  0.39136923  0.65942694    -0.30800
N351        N  0.10616339  0.40503113  0.62707736     0.15700
C352        C  0.11927718  0.39504020  0.59459243    -0.30800
H353        H  0.11670792  0.40368143  0.56489868     0.17600
C354        C  0.10863877  0.26663978  0.65949746    -0.29800
N355        N  0.09563802  0.24189394  0.62702452     0.14400
C356        C  0.11075028  0.26690289  0.59455715    -0.29800
C357        C  0.24400428  0.39991595  0.66049783    -0.30100
N358        N  0.26980726  0.41497497  0.62851329     0.14900
H359        H  0.25502355  0.40541029  0.69072135     0.17500
C360        C  0.24535055  0.40202665  0.59554683    -0.30100
H361        H  0.25807610  0.41030855  0.56595368     0.17500
H362        H  0.10505113  0.25548929  0.56454475     0.17500
H363        H  0.10877135  0.39535156  0.68925690     0.17600
H364        H  0.10007328  0.25453714  0.68926535     0.17500
C365        C  0.16439904  0.32425077  0.73165233    -0.11900
C366        C  0.16097177  0.35427142  0.71115080     0.10200
C367        C  0.16859565  0.38983578  0.73178309    -0.11900
C368        C  0.16930863  0.38999574  0.77254517    -0.11900
C369        C  0.16221253  0.35452058  0.79311320     0.10200
C370        C  0.16485576  0.32427355  0.77240506    -0.11900
H371        H  0.16726795  0.30109484  0.71639734     0.14200
H372        H  0.17445999  0.41765941  0.71660857     0.14200
H373        H  0.17551567  0.41787328  0.78781207     0.14200
H374        H  0.16793890  0.30109044  0.78744453     0.14200
C375        C  0.18749424  0.34751632  0.98192809    -0.11900
C376        C  0.15739471  0.35099733  0.96110256     0.10200
C377        C  0.12161752  0.34417413  0.98153977    -0.11900
C378        C  0.12125273  0.34378320  0.52228398    -0.11900
C379        C  0.15658162  0.35003675  0.54315932     0.10200
C380        C  0.18706624  0.34699791  0.52271264    -0.11900
H381        H  0.21104215  0.34473354  0.96685057     0.14200
H382        H  0.09353319  0.33836450  0.96624991     0.14200
H383        H  0.09308027  0.33802084  0.53725935     0.14200
H384        H  0.21032667  0.34387327  0.53805490     0.14200
C385        C  0.05429653  0.15946227  0.63033584    -0.11900
C386        C  0.07255366  0.19744448  0.62768799    -0.13400
C387        C  0.35265690  0.45556071  0.63571096    -0.11900
C388        C  0.31468556  0.43776956  0.63005398    -0.13400
C389        C  0.07324208  0.44872428  0.63418192    -0.11900
C390        C  0.08778622  0.42817173  0.62817936    -0.13400
C391        C  0.05614029  0.15978781  0.88251548    -0.11900
C392        C  0.07503041  0.19791772  0.88052941    -0.13400
C393        C  0.35396245  0.45528461  0.88434435    -0.11900
C394        C  0.31611594  0.43815598  0.87820146    -0.13400
C395        C  0.07239360  0.44711983  0.88315601    -0.11900
C396        C  0.08674485  0.42644278  0.87677805    -0.13400
C397        C  0.44505801  0.08271577  0.73502095    -0.11900
C398        C  0.42891571  0.10227968  0.73989574    -0.13400
C399        C  0.43058514  0.32844776  0.74067540    -0.11900
C400        C  0.44763360  0.36664662  0.73886757    -0.13400
C401        C  0.19487369  0.09781488  0.73844216    -0.11900
C402        C  0.15598888  0.07764845  0.73454590    -0.13400
C403        C  0.44595228  0.08283152  0.98363615    -0.11900
C404        C  0.42996010  0.10260981  0.98797078    -0.13400
C405        C  0.44925440  0.36707217  0.99029855    -0.11900
C406        C  0.43257207  0.32896414  0.99235199    -0.13400
C407        C  0.15718179  0.07806261  0.98533980    -0.11900
C408        C  0.19608791  0.09879584  0.98954359    -0.13400
C409        C  0.39128300  0.20330597  0.88594018    -0.11900
C410        C  0.35457176  0.17193051  0.90688110     0.10200
C411        C  0.32163402  0.13576502  0.88647378    -0.11900
C412        C  0.32116434  0.13544817  0.84569464    -0.11900
C413        C  0.35390263  0.17109504  0.82473063     0.10200
C414        C  0.39102692  0.20275945  0.84514544    -0.11900
H415        H  0.42035611  0.22791498  0.90091919     0.14200
H416        H  0.29641796  0.10752308  0.90187752     0.14200
H417        H  0.29553722  0.10708883  0.83075367     0.14200
H418        H  0.41996660  0.22698137  0.82972822     0.14200
C419        C  0.32236906  0.13442185  0.59536494    -0.11900
C420        C  0.35540625  0.17026560  0.57480231     0.10200
C421        C  0.39231202  0.20163025  0.59561294    -0.11900
C422        C  0.39182836  0.20194839  0.63640109    -0.11900
C423        C  0.35453623  0.17072947  0.65683478     0.10200
C424        C  0.32198993  0.13460790  0.63613965    -0.11900
H425        H  0.29693390  0.10620840  0.58009858     0.14200
H426        H  0.42148706  0.22592645  0.58052879     0.14200
H427        H  0.42061548  0.22645997  0.65178832     0.14200
H428        H  0.29639741  0.10639490  0.65128896     0.14200
C429        C  0.35388291  0.67317380  0.45098507     0.31400
C430        C  0.35402865  0.67200955  0.03079642     0.31400
C431        C  0.37414926  0.65203249  0.47003441    -0.04800
C432        C  0.37820433  0.71746557  0.47088815    -0.05600
C433        C  0.30901520  0.65050096  0.47052883    -0.05400
C434        C  0.37428829  0.65140258  0.01068143    -0.04800
C435        C  0.37824623  0.71689448  0.01182181    -0.05600
C436        C  0.30889746  0.64975499  0.01139695    -0.05400
C437        C  0.39576253  0.63326506  0.02215870    -0.30800
N438        N  0.40854145  0.62317693  0.48928746     0.15700
C439        C  0.39551395  0.63439094  0.45727921    -0.30800
H440        H  0.40143578  0.63029809  0.42704062     0.17600
C441        C  0.39851600  0.75877845  0.02425513    -0.29800
N442        N  0.41135497  0.78431297  0.99213108     0.14400
C443        C  0.39847756  0.75963822  0.45944899    -0.29800
C444        C  0.26649923  0.63162278  0.02318876    -0.30100
N445        N  0.24146649  0.62107243  0.49064255     0.14900
H446        H  0.25465690  0.62708772  0.05300632     0.17500
C447        C  0.26700962  0.63315061  0.45846634    -0.30100
H448        H  0.25566212  0.63007760  0.42857959     0.17500
H449        H  0.40248868  0.77161409  0.42974786     0.17500
H450        H  0.40190608  0.62811888  0.05201756     0.17600
H451        H  0.40254821  0.76996850  0.05422747     0.17500
C452        C  0.35297601  0.67218679  0.20085725     0.31400
C453        C  0.35251094  0.67201054  0.28067022     0.31400
C454        C  0.37349728  0.65173619  0.22069731    -0.04800
C455        C  0.37659666  0.71668959  0.22027333    -0.05600
C456        C  0.30787525  0.64913478  0.22002822    -0.05400
C457        C  0.37338177  0.65158594  0.26133750    -0.04800
C458        C  0.37627527  0.71659543  0.26118033    -0.05600
C459        C  0.30748736  0.64894890  0.26094071    -0.05400
C460        C  0.39460877  0.63334913  0.27344045    -0.30800
N461        N  0.40744825  0.62279951  0.24089487     0.15700
C462        C  0.39466518  0.63373938  0.20855151    -0.30800
H463        H  0.40054147  0.62911935  0.17846786     0.17600
C464        C  0.39609427  0.75855924  0.27313507    -0.29800
N465        N  0.40911432  0.78374645  0.24076498     0.14400
C466        C  0.39674379  0.75872220  0.20833726    -0.29800
C467        C  0.26501566  0.63075272  0.27239304    -0.30100
N468        N  0.24016486  0.61956644  0.23966084     0.14900
H469        H  0.25302898  0.62680776  0.30209032     0.16500
C470        C  0.26587699  0.63128617  0.20762963    -0.30100
H471        H  0.25469661  0.62788191  0.17763253     0.17500
H472        H  0.40118904  0.77035395  0.17845378     0.17500
H473        H  0.40043726  0.62835290  0.30346721     0.17600
H474        H  0.39989492  0.77005569  0.30296500     0.17500
O475        O  0.08805075  0.51319906  0.48685464    -0.78700
O476        O  0.49259063  0.56952274  0.45238358    -0.78800
O477        O  0.05708344  0.60230435  0.40584896    -0.78800
O478        O  0.46374775  0.98051770  0.02113362    -0.78700
O479        O  0.99834044  0.58864482  0.37452327    -0.78800
O480        O  0.03115576  0.03161038  0.01009336    -0.78700
O481        O  0.43090138  0.51487995  0.47411135    -0.78700
O482        O  0.09577667  0.56785346  0.45345039    -0.78800
C483        C  0.11193232  0.55163620  0.47461883     1.11000
C484        C  0.45820229  0.55485698  0.47140772     1.10800
C485        C  0.03664302  0.61506214  0.38658996     1.11000
C486        C  0.50005089  0.01129757  0.03424203     1.10900
O487        O  0.49902232  0.94227443  0.49543778    -0.78700
O488        O  0.47474678  0.50865769  0.35075443    -0.78800
O489        O  0.07597172  0.01002964  0.38795111    -0.78700
O490        O  0.40467145  0.94903833  0.41620463    -0.78700
O491        O  0.42376212  0.01316957  0.39927900    -0.78800
O492        O  0.03521883  0.95929108  0.42876540    -0.78700
O493        O  0.43925118  0.91603900  0.46132449    -0.78700
O494        O  0.04291649  0.54248420  0.34350181    -0.78800
Co495      Co  0.03426395  0.99822291  0.46582505     1.51500
Co496      Co  0.48710192  0.53983988  0.40200920     1.51700
Co497      Co  0.05914254  0.54928743  0.40194264     1.51600
Co498      Co  0.43902204  0.96760214  0.46531279     1.51500
O499        O  0.99468821  0.50016520  0.43005254    -1.40700
C500        C  0.46328351  0.91041239  0.48235705     1.10900
C501        C  0.00590549  0.52112890  0.32796342     1.11000
C502        C  0.05972303  0.97277546  0.39982649     1.10900
C503        C  0.39627555  0.97318918  0.39956598     1.10900
O504        O  0.08683813  0.51300892  0.23638072    -0.78700
O505        O  0.49127803  0.56992241  0.20199029    -0.78800
O506        O  0.05575850  0.60275675  0.15539886    -0.78800
O507        O  0.46306686  0.98037732  0.27122591    -0.78700
O508        O  0.99676752  0.58825834  0.12386987    -0.78800
O509        O  0.03029709  0.03153817  0.25994682    -0.78700
O510        O  0.43017124  0.51501906  0.22461961    -0.78700
O511        O  0.09408815  0.56815248  0.20435358    -0.78800
C512        C  0.11059024  0.55161984  0.22453737     1.11000
C513        C  0.45724364  0.55500198  0.22173821     1.10800
C514        C  0.03510223  0.61496474  0.13558633     1.11000
C515        C  0.49946990  0.01111505  0.28424675     1.10900
O516        O  0.49769035  0.94186954  0.24483560    -0.78700
O517        O  0.47441100  0.50888226  0.10046543    -0.78800
O518        O  0.07635156  0.01137162  0.13909544    -0.78700
O519        O  0.40378302  0.94943812  0.16643245    -0.78700
O520        O  0.42279023  0.01343437  0.14927030    -0.78800
O521        O  0.03376387  0.95948986  0.17814245    -0.78700
O522        O  0.43810098  0.91619190  0.21070259    -0.78700
O523        O  0.04275602  0.54286546  0.09382403    -0.78800
Co524      Co  0.03303948  0.99815361  0.21557907     1.51500
Co525      Co  0.48605936  0.54001329  0.15173712     1.51700
Co526      Co  0.05843783  0.54996015  0.15236538     1.51600
Co527      Co  0.43817256  0.96780186  0.21538163     1.51500
O528        O  0.99373804  0.50055352  0.18003341    -1.40700
C529        C  0.46195925  0.91018895  0.23149895     1.10900
C530        C  0.00590771  0.52142296  0.07798055     1.11000
C531        C  0.05960250  0.97378456  0.15022151     1.10900
C532        C  0.39522101  0.97352317  0.15003462     1.10900
C533        C  0.15925131  0.85298966  0.33709133     0.31400
C534        C  0.15896760  0.85355928  0.41701180     0.31400
C535        C  0.13645258  0.87190067  0.35601398    -0.04800
C536        C  0.13603618  0.80890720  0.35709181    -0.05600
C537        C  0.20367614  0.87807787  0.35676410    -0.05400
C538        C  0.13728536  0.87302225  0.39695128    -0.04800
C539        C  0.13654225  0.80965549  0.39792118    -0.05600
C540        C  0.20365655  0.87885113  0.39758232    -0.05400
C541        C  0.11915273  0.89411013  0.40847503    -0.30800
N542        N  0.10552225  0.90365170  0.37598936     0.15700
C543        C  0.11541863  0.89020890  0.34369515    -0.30800
H544        H  0.10832533  0.89418884  0.31381449     0.17600
C545        C  0.11358222  0.76820284  0.41111038    -0.29800
N546        N  0.09870366  0.74243278  0.37927863     0.14400
C547        C  0.11145550  0.76644261  0.34617654    -0.29800
C548        C  0.24610839  0.90358609  0.40941838    -0.30100
N549        N  0.27126211  0.91638058  0.37698844     0.14900
H550        H  0.25823198  0.91150815  0.43925696     0.17500
C551        C  0.24604472  0.90124692  0.34449769    -0.30100
H552        H  0.25762217  0.90613127  0.31453201     0.17500
H553        H  0.10264699  0.75359948  0.31670271     0.17500
H554        H  0.11687550  0.90305286  0.43807050     0.17600
H555        H  0.10768606  0.75751801  0.44141315     0.17500
C556        C  0.15782023  0.85268672  0.08717504     0.31400
C557        C  0.15781819  0.85279736  0.16711483     0.31400
C558        C  0.13707467  0.87348747  0.10651752    -0.04800
C559        C  0.13417574  0.80875829  0.10682981    -0.05600
C560        C  0.20253572  0.87721699  0.10682872    -0.05400
C561        C  0.13626272  0.87261113  0.14750085    -0.04800
C562        C  0.13362894  0.80866941  0.14765947    -0.05600
C563        C  0.20207088  0.87663656  0.14763331    -0.05400
C564        C  0.11585985  0.89136917  0.15942696    -0.30800
N565        N  0.10616337  0.90503115  0.12707744     0.15700
C566        C  0.11927729  0.89504031  0.09459255    -0.30800
H567        H  0.11670802  0.90368158  0.06489859     0.17600
C568        C  0.10863868  0.76663973  0.15949750    -0.29800
N569        N  0.09563807  0.74189390  0.12702456     0.14400
C570        C  0.11075029  0.76690279  0.09455715    -0.29800
C571        C  0.24400425  0.89991592  0.16049799    -0.30100
N572        N  0.26980728  0.91497505  0.12851337     0.14900
H573        H  0.25502321  0.90541017  0.19072098     0.17500
C574        C  0.24535057  0.90202657  0.09554703    -0.30100
H575        H  0.25807649  0.91030865  0.06595316     0.17500
H576        H  0.10505126  0.75548925  0.06454499     0.17500
H577        H  0.10877105  0.89535135  0.18925726     0.17600
H578        H  0.10007318  0.75453716  0.18926527     0.17500
C579        C  0.16439906  0.82425070  0.23165228    -0.11900
C580        C  0.16097186  0.85427145  0.21115082     0.10200
C581        C  0.16859556  0.88983579  0.23178311    -0.11900
C582        C  0.16930844  0.88999556  0.27254516    -0.11900
C583        C  0.16221246  0.85452054  0.29311319     0.10200
C584        C  0.16485573  0.82427348  0.27240508    -0.11900
H585        H  0.16726790  0.80109510  0.21639752     0.14200
H586        H  0.17445980  0.91765909  0.21660884     0.14200
H587        H  0.17551554  0.91787356  0.28781233     0.14200
H588        H  0.16793885  0.80109053  0.28744443     0.14200
C589        C  0.18749420  0.84751638  0.48192800    -0.11900
C590        C  0.15739469  0.85099742  0.46110249     0.10200
C591        C  0.12161739  0.84417418  0.48153963    -0.11900
C592        C  0.12125263  0.84378308  0.02228408    -0.11900
C593        C  0.15658155  0.85003661  0.04315939     0.10200
C594        C  0.18706624  0.84699778  0.02271277    -0.11900
H595        H  0.21104208  0.84473368  0.46685049     0.14200
H596        H  0.09353367  0.83836470  0.46625013     0.14200
H597        H  0.09308054  0.83802084  0.03725928     0.14200
H598        H  0.21032624  0.84387315  0.03805478     0.14200
C599        C  0.05429661  0.65946223  0.13033580    -0.11900
C600        C  0.07255372  0.69744440  0.12768803    -0.13400
C601        C  0.35265700  0.95556077  0.13571091    -0.11900
C602        C  0.31468562  0.93776964  0.13005409    -0.13400
C603        C  0.07324206  0.94872432  0.13418186    -0.11900
C604        C  0.08778621  0.92817178  0.12817933    -0.13400
C605        C  0.05614018  0.65978780  0.38251542    -0.11900
C606        C  0.07503046  0.69791771  0.38052945    -0.13400
C607        C  0.35396242  0.95528459  0.38434433    -0.11900
C608        C  0.31611595  0.93815592  0.37820139    -0.13400
C609        C  0.07239339  0.94711976  0.38315614    -0.11900
C610        C  0.08674471  0.92644279  0.37677813    -0.13400
C611        C  0.44505787  0.58271562  0.23502077    -0.11900
C612        C  0.42891565  0.60227955  0.23989556    -0.13400
C613        C  0.43058492  0.82844769  0.24067540    -0.11900
C614        C  0.44763341  0.86664655  0.23886767    -0.13400
C615        C  0.19487374  0.59781486  0.23844227    -0.11900
C616        C  0.15598891  0.57764834  0.23454605    -0.13400
C617        C  0.44595237  0.58283158  0.48363603    -0.11900
C618        C  0.42996021  0.60260988  0.48797071    -0.13400
C619        C  0.44925443  0.86707224  0.49029862    -0.11900
C620        C  0.43257205  0.82896419  0.49235216    -0.13400
C621        C  0.15718178  0.57806276  0.48533978    -0.11900
C622        C  0.19608790  0.59879592  0.48954363    -0.13400
C623        C  0.39128300  0.70330590  0.38594003    -0.11900
C624        C  0.35457186  0.67193055  0.40688104     0.10200
C625        C  0.32163413  0.63576510  0.38647368    -0.11900
C626        C  0.32116440  0.63544814  0.34569454    -0.11900
C627        C  0.35390271  0.67109505  0.32473055     0.10200
C628        C  0.39102692  0.70275954  0.34514534    -0.11900
H629        H  0.42035677  0.72791548  0.40091936     0.14200
H630        H  0.29641781  0.60752296  0.40187758     0.14200
H631        H  0.29553752  0.60708904  0.33075370     0.14200
H632        H  0.41996647  0.72698149  0.32972808     0.14200
C633        C  0.32236919  0.63442196  0.09536499    -0.11900
C634        C  0.35540626  0.67026572  0.07480237     0.10200
C635        C  0.39231210  0.70163032  0.09561299    -0.11900
C636        C  0.39182859  0.70194853  0.13640124    -0.11900
C637        C  0.35453634  0.67072948  0.15683481     0.10200
C638        C  0.32198996  0.63460777  0.13613976    -0.11900
H639        H  0.29693379  0.60620824  0.08009852     0.14200
H640        H  0.42148707  0.72592644  0.08052891     0.14200
H641        H  0.42061484  0.72645931  0.15178799     0.14200
H642        H  0.29639818  0.60639554  0.15128860     0.14200
C643        C  0.35388290  0.67317382  0.95098508     0.31400
C644        C  0.35402856  0.67200941  0.53079641     0.31400
C645        C  0.37414936  0.65203263  0.97003446    -0.04800
C646        C  0.37820421  0.71746559  0.97088812    -0.05600
C647        C  0.30901523  0.65050097  0.97052880    -0.05400
C648        C  0.37428812  0.65140237  0.51068141    -0.04800
C649        C  0.37824628  0.71689439  0.51182183    -0.05600
C650        C  0.30889741  0.64975498  0.51139697    -0.05400
C651        C  0.39576243  0.63326503  0.52215850    -0.30800
N652        N  0.40854142  0.62317694  0.98928748     0.15700
C653        C  0.39551402  0.63439097  0.95727907    -0.30800
H654        H  0.40143560  0.63029819  0.92704154     0.17600
C655        C  0.39851589  0.75877835  0.52425530    -0.29800
N656        N  0.41135499  0.78431295  0.49213119     0.14400
C657        C  0.39847743  0.75963821  0.95944887    -0.29800
C658        C  0.26649909  0.63162265  0.52318900    -0.30100
N659        N  0.24146656  0.62107246  0.99064253     0.14900
H660        H  0.25465710  0.62708765  0.55300556     0.17500
C661        C  0.26700963  0.63315066  0.95846612    -0.30100
H662        H  0.25566239  0.63007774  0.92858015     0.17500
H663        H  0.40248853  0.77161398  0.92974788     0.17500
H664        H  0.40190631  0.62811878  0.55201856     0.17600
H665        H  0.40254779  0.76996814  0.55422718     0.17500
C666        C  0.35297596  0.67218680  0.70085724     0.31400
C667        C  0.35251092  0.67201056  0.78067027     0.31400
C668        C  0.37349720  0.65173617  0.72069736    -0.04800
C669        C  0.37659665  0.71668960  0.72027338    -0.05600
C670        C  0.30787521  0.64913485  0.72002817    -0.05400
C671        C  0.37338169  0.65158593  0.76133755    -0.04800
C672        C  0.37627534  0.71659544  0.76118037    -0.05600
C673        C  0.30748733  0.64894894  0.76094068    -0.05400
C674        C  0.39460870  0.63334911  0.77344065    -0.30800
N675        N  0.40744817  0.62279949  0.74089492     0.15700
C676        C  0.39466510  0.63373939  0.70855166    -0.30800
H677        H  0.40054149  0.62911935  0.67846768     0.17600
C678        C  0.39609446  0.75855932  0.77313524    -0.29800
N679        N  0.40911450  0.78374647  0.74076502     0.14400
C680        C  0.39674389  0.75872222  0.70833730    -0.29800
C681        C  0.26501563  0.63075270  0.77239294    -0.30100
N682        N  0.24016481  0.61956646  0.73966076     0.14900
H683        H  0.25302886  0.62680763  0.80209039     0.16500
C684        C  0.26587696  0.63128621  0.70762958    -0.30100
H685        H  0.25469649  0.62788188  0.67763235     0.17500
H686        H  0.40118910  0.77035388  0.67845402     0.17500
H687        H  0.40043706  0.62835302  0.80346672     0.17600
H688        H  0.39989506  0.77005553  0.80296451     0.17500
O689        O  0.08805079  0.51319912  0.98685476    -0.78700
O690        O  0.49259074  0.56952278  0.95238365    -0.78800
O691        O  0.05708356  0.60230439  0.90584893    -0.78800
O692        O  0.46374773  0.98051770  0.52113356    -0.78700
O693        O  0.99834063  0.58864486  0.87452316    -0.78800
O694        O  0.03115567  0.03161042  0.51009327    -0.78700
O695        O  0.43090140  0.51487997  0.97411133    -0.78700
O696        O  0.09577671  0.56785346  0.95345040    -0.78800
C697        C  0.11193238  0.55163621  0.97461883     1.11000
C698        C  0.45820234  0.55485700  0.97140777     1.10800
C699        C  0.03664317  0.61506219  0.88658990     1.11000
C700        C  0.50005089  0.01129758  0.53424198     1.10900
O701        O  0.49902241  0.94227431  0.99543773    -0.78700
O702        O  0.47474675  0.50865769  0.85075436    -0.78800
O703        O  0.07597163  0.01002960  0.88795108    -0.78700
O704        O  0.40467146  0.94903834  0.91620464    -0.78700
O705        O  0.42376225  0.01316959  0.89927888    -0.78800
O706        O  0.03521878  0.95929099  0.92876530    -0.78700
O707        O  0.43925110  0.91603901  0.96132468    -0.78700
O708        O  0.04291642  0.54248420  0.84350188    -0.78800
Co709      Co  0.03426401  0.99822286  0.96582512     1.51500
Co710      Co  0.48710204  0.53983990  0.90200917     1.51700
Co711      Co  0.05914247  0.54928740  0.90194272     1.51600
Co712      Co  0.43902196  0.96760214  0.96531289     1.51500
O713        O  0.99468818  0.50016518  0.93005267    -1.40700
C714        C  0.46328350  0.91041235  0.98235709     1.10900
C715        C  0.00590549  0.52112891  0.82796339     1.11000
C716        C  0.05972303  0.97277542  0.89982642     1.10900
C717        C  0.39627563  0.97318919  0.89956590     1.10900
O718        O  0.08683816  0.51300893  0.73638056    -0.78700
O719        O  0.49127802  0.56992243  0.70199033    -0.78800
O720        O  0.05575842  0.60275672  0.65539878    -0.78800
O721        O  0.46306690  0.98037723  0.77122583    -0.78700
O722        O  0.99676748  0.58825831  0.62386977    -0.78800
O723        O  0.03029712  0.03153819  0.75994683    -0.78700
O724        O  0.43017113  0.51501907  0.72461951    -0.78700
O725        O  0.09408807  0.56815247  0.70435350    -0.78800
C726        C  0.11059024  0.55161985  0.72453721     1.11000
C727        C  0.45724362  0.55500200  0.72173827     1.10800
C728        C  0.03510217  0.61496472  0.63558625     1.11000
C729        C  0.49946988  0.01111499  0.78424673     1.10900
O730        O  0.49769030  0.94186954  0.74483555    -0.78700
O731        O  0.47441102  0.50888220  0.60046547    -0.78800
O732        O  0.07635156  0.01137165  0.63909544    -0.78700
O733        O  0.40378296  0.94943814  0.66643235    -0.78700
O734        O  0.42279024  0.01343441  0.64927018    -0.78800
O735        O  0.03376389  0.95948987  0.67814249    -0.78700
O736        O  0.43810081  0.91619185  0.71070264    -0.78700
O737        O  0.04275602  0.54286552  0.59382403    -0.78800
Co738      Co  0.03303947  0.99815361  0.71557909     1.51500
Co739      Co  0.48605940  0.54001331  0.65173709     1.51700
Co740      Co  0.05843776  0.54996014  0.65236533     1.51600
Co741      Co  0.43817249  0.96780187  0.71538155     1.51500
O742        O  0.99373797  0.50055342  0.68003330    -1.40700
C743        C  0.46195919  0.91018894  0.73149889     1.10900
C744        C  0.00590768  0.52142294  0.57798055     1.11000
C745        C  0.05960252  0.97378459  0.65022154     1.10900
C746        C  0.39522096  0.97352321  0.65003456     1.10900
C747        C  0.15925136  0.85298966  0.83709136     0.31400
C748        C  0.15896763  0.85355930  0.91701188     0.31400
C749        C  0.13645253  0.87190056  0.85601402    -0.04800
C750        C  0.13603635  0.80890724  0.85709187    -0.05600
C751        C  0.20367617  0.87807790  0.85676416    -0.05400
C752        C  0.13728534  0.87302219  0.89695131    -0.04800
C753        C  0.13654233  0.80965550  0.89792124    -0.05600
C754        C  0.20365654  0.87885118  0.89758238    -0.05400
C755        C  0.11915281  0.89411021  0.90847520    -0.30800
N756        N  0.10552231  0.90365170  0.87598933     0.15700
C757        C  0.11541852  0.89020870  0.84369523    -0.30800
H758        H  0.10832509  0.89418858  0.81381426     0.17600
C759        C  0.11358215  0.76820283  0.91111036    -0.29800
N760        N  0.09870357  0.74243279  0.87927868     0.14400
C761        C  0.11145557  0.76644260  0.84617641    -0.29800
C762        C  0.24610840  0.90358615  0.90941859    -0.30100
N763        N  0.27126214  0.91638059  0.87698851     0.14900
H764        H  0.25823165  0.91150803  0.93925636     0.17500
C765        C  0.24604475  0.90124697  0.84449780    -0.30100
H766        H  0.25762231  0.90613141  0.81453200     0.17500
H767        H  0.10264734  0.75359991  0.81670357     0.17500
H768        H  0.11687568  0.90305277  0.93806986     0.17600
H769        H  0.10768586  0.75751787  0.94141342     0.17500
C770        C  0.15782021  0.85268673  0.58717499     0.31400
C771        C  0.15781817  0.85279738  0.66711481     0.31400
C772        C  0.13707461  0.87348743  0.60651746    -0.04800
C773        C  0.13417579  0.80875831  0.60682982    -0.05600
C774        C  0.20253569  0.87721704  0.60682871    -0.05400
C775        C  0.13626267  0.87261109  0.64750079    -0.04800
C776        C  0.13362897  0.80866942  0.64765947    -0.05600
C777        C  0.20207089  0.87663661  0.64763330    -0.05400
C778        C  0.11585983  0.89136917  0.65942693    -0.30800
N779        N  0.10616343  0.90503121  0.62707737     0.15700
C780        C  0.11927726  0.89504033  0.59459244    -0.30800
H781        H  0.11670802  0.90368159  0.56489867     0.17600
C782        C  0.10863871  0.76663970  0.65949750    -0.29800
N783        N  0.09563798  0.74189387  0.62702452     0.14400
C784        C  0.11075023  0.76690281  0.59455712    -0.29800
C785        C  0.24400428  0.89991588  0.66049785    -0.30100
N786        N  0.26980726  0.91497500  0.62851329     0.14900
H787        H  0.25502348  0.90541019  0.69072116     0.17500
C788        C  0.24535056  0.90202663  0.59554680    -0.30100
H789        H  0.25807606  0.91030848  0.56595384     0.17500
H790        H  0.10505114  0.75548933  0.56454505     0.17500
H791        H  0.10877114  0.89535136  0.68925691     0.17600
H792        H  0.10007330  0.75453717  0.68926505     0.17500
C793        C  0.16439895  0.82425070  0.73165232    -0.11900
C794        C  0.16097182  0.85427143  0.71115080     0.10200
C795        C  0.16859570  0.88983591  0.73178305    -0.11900
C796        C  0.16930857  0.88999559  0.77254512    -0.11900
C797        C  0.16221256  0.85452060  0.79311320     0.10200
C798        C  0.16485567  0.82427345  0.77240507    -0.11900
H799        H  0.16726780  0.80109476  0.71639735     0.14200
H800        H  0.17445989  0.91765886  0.71660891     0.14200
H801        H  0.17551567  0.91787381  0.78781242     0.14200
H802        H  0.16793875  0.80109038  0.78744448     0.14200
C803        C  0.18749424  0.84751639  0.98192808    -0.11900
C804        C  0.15739476  0.85099746  0.96110256     0.10200
C805        C  0.12161753  0.84417421  0.98153979    -0.11900
C806        C  0.12125249  0.84378308  0.52228404    -0.11900
C807        C  0.15658150  0.85003661  0.54315931     0.10200
C808        C  0.18706612  0.84699780  0.52271265    -0.11900
H809        H  0.21104225  0.84473367  0.96685049     0.14200
H810        H  0.09353327  0.83836466  0.96624993     0.14200
H811        H  0.09308092  0.83802094  0.53725889     0.14200
H812        H  0.21032651  0.84387312  0.53805489     0.14200
C813        C  0.05429649  0.65946220  0.63033584    -0.11900
C814        C  0.07255360  0.69744439  0.62768799    -0.13400
C815        C  0.35265694  0.95556084  0.63571096    -0.11900
C816        C  0.31468558  0.93776966  0.63005399    -0.13400
C817        C  0.07324213  0.94872437  0.63418193    -0.11900
C818        C  0.08778630  0.92817184  0.62817938    -0.13400
C819        C  0.05614028  0.65978783  0.88251547    -0.11900
C820        C  0.07503040  0.69791773  0.88052943    -0.13400
C821        C  0.35396248  0.95528464  0.88434435    -0.11900
C822        C  0.31611595  0.93815594  0.87820146    -0.13400
C823        C  0.07239353  0.94711983  0.88315604    -0.11900
C824        C  0.08674485  0.92644285  0.87677806    -0.13400
C825        C  0.44505788  0.58271566  0.73502090    -0.11900
C826        C  0.42891560  0.60227958  0.73989562    -0.13400
C827        C  0.43058509  0.82844771  0.74067535    -0.11900
C828        C  0.44763351  0.86664657  0.73886752    -0.13400
C829        C  0.19487372  0.59781492  0.73844218    -0.11900
C830        C  0.15598888  0.57764840  0.73454592    -0.13400
C831        C  0.44595234  0.58283155  0.98363614    -0.11900
C832        C  0.42996015  0.60260984  0.98797079    -0.13400
C833        C  0.44925440  0.86707221  0.99029853    -0.11900
C834        C  0.43257212  0.82896421  0.99235200    -0.13400
C835        C  0.15718185  0.57806276  0.98533979    -0.11900
C836        C  0.19608797  0.59879590  0.98954358    -0.13400
C837        C  0.39128294  0.70330589  0.88594013    -0.11900
C838        C  0.35457180  0.67193059  0.90688111     0.10200
C839        C  0.32163402  0.63576508  0.88647378    -0.11900
C840        C  0.32116438  0.63544824  0.84569466    -0.11900
C841        C  0.35390267  0.67109505  0.82473062     0.10200
C842        C  0.39102697  0.70275952  0.84514544    -0.11900
H843        H  0.42035675  0.72791548  0.90091951     0.14200
H844        H  0.29641801  0.60752320  0.90187753     0.14200
H845        H  0.29553714  0.60708874  0.83075364     0.14200
H846        H  0.41996643  0.72698131  0.82972829     0.14200
C847        C  0.32236896  0.63442168  0.59536491    -0.11900
C848        C  0.35540621  0.67026549  0.57480231     0.10200
C849        C  0.39231199  0.70163024  0.59561291    -0.11900
C850        C  0.39182835  0.70194830  0.63640107    -0.11900
C851        C  0.35453630  0.67072942  0.65683477     0.10200
C852        C  0.32198984  0.63460773  0.63613974    -0.11900
H853        H  0.29693421  0.60620872  0.58009891     0.14200
H854        H  0.42148681  0.72592632  0.58052884     0.14200
H855        H  0.42061569  0.72646008  0.65178836     0.14200
H856        H  0.29639795  0.60639546  0.65128864     0.14200
C857        C  0.85388286  0.17317376  0.45098510     0.31400
C858        C  0.85402857  0.17200946  0.03079642     0.31400
C859        C  0.87414927  0.15203250  0.47003442    -0.04800
C860        C  0.87820426  0.21746555  0.47088815    -0.05600
C861        C  0.80901517  0.15050085  0.47052885    -0.05400
C862        C  0.87428817  0.15140246  0.01068143    -0.04800
C863        C  0.87824620  0.21689441  0.01182181    -0.05600
C864        C  0.80889739  0.14975491  0.01139694    -0.05400
C865        C  0.89576246  0.13326499  0.02215871    -0.30800
N866        N  0.90854154  0.12317702  0.48928746     0.15700
C867        C  0.89551406  0.13439106  0.45727921    -0.30800
H868        H  0.90143592  0.13029825  0.42704061     0.17600
C869        C  0.89851597  0.25877837  0.02425509    -0.29800
N870        N  0.91135495  0.28431291  0.99213107     0.14400
C871        C  0.89847735  0.25963814  0.45944902    -0.29800
C872        C  0.76649917  0.13162274  0.02318878    -0.30100
N873        N  0.74146650  0.12107251  0.49064257     0.14900
H874        H  0.75465687  0.12708767  0.05300623     0.17500
C875        C  0.76700959  0.13315054  0.45846634    -0.30100
H876        H  0.75566211  0.13007751  0.42857965     0.17500
H877        H  0.90248833  0.27161406  0.42974763     0.17500
H878        H  0.90190595  0.12811878  0.05201752     0.17600
H879        H  0.90254823  0.26996855  0.05422772     0.17500
C880        C  0.85297598  0.17218677  0.20085727     0.31400
C881        C  0.85251091  0.17201052  0.28067027     0.31400
C882        C  0.87349712  0.15173604  0.22069736    -0.04800
C883        C  0.87659668  0.21668962  0.22027335    -0.05600
C884        C  0.80787522  0.14913479  0.22002822    -0.05400
C885        C  0.87338166  0.15158582  0.26133755    -0.04800
C886        C  0.87627529  0.21659545  0.26118033    -0.05600
C887        C  0.80748734  0.14894888  0.26094073    -0.05400
C888        C  0.89460871  0.13334904  0.27344048    -0.30800
N889        N  0.90744819  0.12279944  0.24089488     0.15700
C890        C  0.89466507  0.13373928  0.20855152    -0.30800
H891        H  0.90054146  0.12911942  0.17846802     0.17600
C892        C  0.89609434  0.25855932  0.27313511    -0.29800
N893        N  0.90911440  0.28374654  0.24076499     0.14400
C894        C  0.89674386  0.25872230  0.20833724    -0.29800
C895        C  0.76501566  0.13075277  0.27239304    -0.30100
N896        N  0.74016484  0.11956639  0.23966084     0.14900
H897        H  0.75302899  0.12680790  0.30209036     0.16500
C898        C  0.76587700  0.13128623  0.20762970    -0.30100
H899        H  0.75469647  0.12788196  0.17763218     0.17500
H900        H  0.90118908  0.27035398  0.17845403     0.17500
H901        H  0.90043736  0.12835290  0.30346722     0.17600
H902        H  0.89989496  0.27005567  0.30296473     0.17500
O903        O  0.58805062  0.01319904  0.48685466    -0.78700
O904        O  0.99259063  0.06952273  0.45238362    -0.78800
O905        O  0.55708341  0.10230434  0.40584897    -0.78800
O906        O  0.96374775  0.48051773  0.02113359    -0.78700
O907        O  0.49834045  0.08864489  0.37452328    -0.78800
O908        O  0.53115578  0.53161039  0.01009337    -0.78700
O909        O  0.93090138  0.01487992  0.47411136    -0.78700
O910        O  0.59577674  0.06785354  0.45345040    -0.78800
C911        C  0.61193228  0.05163617  0.47461884     1.11000
C912        C  0.95820227  0.05485695  0.47140773     1.10800
C913        C  0.53664303  0.11506217  0.38658995     1.11000
C914        C  0.00005087  0.51129753  0.03424202     1.10900
O915        O  0.99902231  0.44227435  0.49543781    -0.78700
O916        O  0.97474683  0.00865786  0.35075441    -0.78800
O917        O  0.57597163  0.51002953  0.38795111    -0.78700
O918        O  0.90467142  0.44903827  0.41620462    -0.78700
O919        O  0.92376209  0.51316951  0.39927902    -0.78800
O920        O  0.53521878  0.45929096  0.42876541    -0.78700
O921        O  0.93925122  0.41603900  0.46132448    -0.78700
O922        O  0.54291652  0.04248416  0.34350181    -0.78800
Co923      Co  0.53426392  0.49822283  0.46582507     1.51500
Co924      Co  0.98710198  0.03983997  0.40200919     1.51700
Co925      Co  0.55914261  0.04928751  0.40194264     1.51600
Co926      Co  0.93902202  0.46760210  0.46531279     1.51500
O927        O  0.49468825  0.00016526  0.43005250    -1.40700
C928        C  0.96328350  0.41041234  0.48235706     1.10900
C929        C  0.50590554  0.02112897  0.32796341     1.11000
C930        C  0.55972300  0.47277536  0.39982650     1.10900
C931        C  0.89627553  0.47318912  0.39956598     1.10900
O932        O  0.58683816  0.01300894  0.23638073    -0.78700
O933        O  0.99127803  0.06992234  0.20199030    -0.78800
O934        O  0.55575849  0.10275679  0.15539888    -0.78800
O935        O  0.96306688  0.48037727  0.27122590    -0.78700
O936        O  0.49676749  0.08825828  0.12386988    -0.78800
O937        O  0.53029711  0.53153826  0.25994683    -0.78700
O938        O  0.93017123  0.01501909  0.22461963    -0.78700
O939        O  0.59408812  0.06815247  0.20435359    -0.78800
C940        C  0.61059026  0.05161985  0.22453735     1.11000
C941        C  0.95724367  0.05500200  0.22173821     1.10800
C942        C  0.53510218  0.11496474  0.13558633     1.11000
C943        C  0.99946992  0.51111507  0.28424674     1.10900
O944        O  0.99769040  0.44186966  0.24483558    -0.78700
O945        O  0.97441106  0.00888236  0.10046541    -0.78800
O946        O  0.57635157  0.51137158  0.13909547    -0.78700
O947        O  0.90378297  0.44943799  0.16643246    -0.78700
O948        O  0.92279019  0.51343426  0.14927031    -0.78800
O949        O  0.53376385  0.45948985  0.17814245    -0.78700
O950        O  0.93810096  0.41619185  0.21070259    -0.78700
O951        O  0.54275612  0.04286563  0.09382401    -0.78800
Co952      Co  0.53303953  0.49815371  0.21557905     1.51500
Co953      Co  0.98605935  0.04001327  0.15173712     1.51700
Co954      Co  0.55843788  0.04996022  0.15236537     1.51600
Co955      Co  0.93817253  0.46780179  0.21538163     1.51500
O956        O  0.49373806  0.00055350  0.18003337    -1.40700
C957        C  0.96195930  0.41018901  0.23149894     1.10900
C958        C  0.50590776  0.02142309  0.07798053     1.11000
C959        C  0.55960247  0.47378452  0.15022151     1.10900
C960        C  0.89522098  0.47352305  0.15003463     1.10900
C961        C  0.65925128  0.35298965  0.33709134     0.31400
C962        C  0.65896757  0.35355921  0.41701180     0.31400
C963        C  0.63645247  0.37190056  0.35601399    -0.04800
C964        C  0.63603619  0.30890720  0.35709181    -0.05600
C965        C  0.70367610  0.37807781  0.35676410    -0.05400
C966        C  0.63728530  0.37302218  0.39695129    -0.04800
C967        C  0.63654224  0.30965545  0.39792118    -0.05600
C968        C  0.70365651  0.37885104  0.39758232    -0.05400
C969        C  0.61915278  0.39411018  0.40847507    -0.30800
N970        N  0.60552219  0.40365163  0.37598935     0.15700
C971        C  0.61541854  0.39020880  0.34369518    -0.30800
H972        H  0.60832528  0.39418882  0.31381438     0.17600
C973        C  0.61358221  0.26820280  0.41111041    -0.29800
N974        N  0.59870366  0.24243276  0.37927859     0.14400
C975        C  0.61145553  0.26644263  0.34617654    -0.29800
C976        C  0.74610835  0.40358597  0.40941838    -0.30100
N977        N  0.77126208  0.41638049  0.37698844     0.14900
H978        H  0.75823194  0.41150806  0.43925697     0.17500
C979        C  0.74604468  0.40124684  0.34449771    -0.30100
H980        H  0.75762216  0.40613128  0.31453191     0.17500
H981        H  0.60264702  0.25359951  0.31670266     0.17500
H982        H  0.61687564  0.40305291  0.43807031     0.17600
H983        H  0.60768607  0.25751801  0.44141288     0.17500
C984        C  0.65782025  0.35268672  0.08717504     0.31400
C985        C  0.65781822  0.35279738  0.16711484     0.31400
C986        C  0.63707460  0.37348736  0.10651753    -0.04800
C987        C  0.63417578  0.30875830  0.10682980    -0.05600
C988        C  0.70253573  0.37721700  0.10682873    -0.05400
C989        C  0.63626269  0.37261107  0.14750086    -0.04800
C990        C  0.63362900  0.30866943  0.14765949    -0.05600
C991        C  0.70207090  0.37663661  0.14763331    -0.05400
C992        C  0.61585993  0.39136924  0.15942696    -0.30800
N993        N  0.60616337  0.40503112  0.12707742     0.15700
C994        C  0.61927721  0.39504019  0.09459255    -0.30800
H995        H  0.61670797  0.40368146  0.06489860     0.17600
C996        C  0.60863875  0.26663980  0.15949746    -0.29800
N997        N  0.59563811  0.24189393  0.12702457     0.14400
C998        C  0.61075032  0.26690285  0.09455718    -0.29800
C999        C  0.74400428  0.39991599  0.16049801    -0.30100
N1000       N  0.76980727  0.41497502  0.12851336     0.14900
H1001       H  0.75502321  0.40541022  0.19072086     0.17500
C1002       C  0.74535058  0.40202662  0.09554703    -0.30100
H1003       H  0.75807648  0.41030873  0.06595320     0.17500
H1004       H  0.60505116  0.25548920  0.06454471     0.17500
H1005       H  0.60877130  0.39535159  0.18925725     0.17600
H1006       H  0.60007316  0.25453711  0.18926558     0.17500
C1007       C  0.66439919  0.32425080  0.23165228    -0.11900
C1008       C  0.66097191  0.35427153  0.21115081     0.10200
C1009       C  0.66859554  0.38983571  0.23178316    -0.11900
C1010       C  0.66930851  0.38999575  0.27254521    -0.11900
C1011       C  0.66221246  0.35452055  0.29311319     0.10200
C1012       C  0.66485583  0.32427361  0.27240507    -0.11900
H1013       H  0.66726805  0.30109529  0.21639754     0.14200
H1014       H  0.67445992  0.41765979  0.21660849     0.14200
H1015       H  0.67551547  0.41787297  0.28781199     0.14200
H1016       H  0.66793899  0.30109057  0.28744448     0.14200
C1017       C  0.68749421  0.34751632  0.48192799    -0.11900
C1018       C  0.65739467  0.35099730  0.46110247     0.10200
C1019       C  0.62161737  0.34417409  0.48153965    -0.11900
C1020       C  0.62125272  0.34378319  0.02228406    -0.11900
C1021       C  0.65658163  0.35003673  0.04315939     0.10200
C1022       C  0.68706631  0.34699789  0.02271277    -0.11900
H1023       H  0.71104203  0.34473355  0.46685049     0.14200
H1024       H  0.59353376  0.33836460  0.46625018     0.14200
H1025       H  0.59308050  0.33802090  0.03725932     0.14200
H1026       H  0.71032638  0.34387330  0.03805483     0.14200
C1027       C  0.55429648  0.15946223  0.13033582    -0.11900
C1028       C  0.57255371  0.19744446  0.12768804    -0.13400
C1029       C  0.85265696  0.45556064  0.13571091    -0.11900
C1030       C  0.81468561  0.43776953  0.13005409    -0.13400
C1031       C  0.57324205  0.44872429  0.13418186    -0.11900
C1032       C  0.58778628  0.42817182  0.12817931    -0.13400
C1033       C  0.55614023  0.15978780  0.38251543    -0.11900
C1034       C  0.57503049  0.19791773  0.38052943    -0.13400
C1035       C  0.85396241  0.45528456  0.38434432    -0.11900
C1036       C  0.81611595  0.43815595  0.37820139    -0.13400
C1037       C  0.57239344  0.44711976  0.38315614    -0.11900
C1038       C  0.58674470  0.42644274  0.37677812    -0.13400
C1039       C  0.94505800  0.08271573  0.23502076    -0.11900
C1040       C  0.92891577  0.10227967  0.23989555    -0.13400
C1041       C  0.93058502  0.32844779  0.24067542    -0.11900
C1042       C  0.94763354  0.36664667  0.23886771    -0.13400
C1043       C  0.69487374  0.09781482  0.23844229    -0.11900
C1044       C  0.65598892  0.07764839  0.23454604    -0.13400
C1045       C  0.94595231  0.08283151  0.48363603    -0.11900
C1046       C  0.92996017  0.10260983  0.48797069    -0.13400
C1047       C  0.94925439  0.36707222  0.49029859    -0.11900
C1048       C  0.93257204  0.32896416  0.49235212    -0.13400
C1049       C  0.65718175  0.07806261  0.48533980    -0.11900
C1050       C  0.69608788  0.09879584  0.48954364    -0.13400
C1051       C  0.89128310  0.20330603  0.38594021    -0.11900
C1052       C  0.85457172  0.17193048  0.40688109     0.10200
C1053       C  0.82163410  0.13576507  0.38647375    -0.11900
C1054       C  0.82116426  0.13544812  0.34569462    -0.11900
C1055       C  0.85390267  0.17109506  0.32473062     0.10200
C1056       C  0.89102677  0.20275938  0.34514547    -0.11900
H1057       H  0.92035561  0.22791452  0.40091894     0.14200
H1058       H  0.79641767  0.10752269  0.40187773     0.14200
H1059       H  0.79553739  0.10708908  0.33075378     0.14200
H1060       H  0.91996706  0.22698191  0.32972790     0.14200
C1061       C  0.82236912  0.13442184  0.09536501    -0.11900
C1062       C  0.85540619  0.17026565  0.07480236     0.10200
C1063       C  0.89231190  0.20163023  0.09561304    -0.11900
C1064       C  0.89182847  0.20194841  0.13640119    -0.11900
C1065       C  0.85453629  0.17072940  0.15683484     0.10200
C1066       C  0.82199000  0.13460783  0.13613971    -0.11900
H1067       H  0.79693382  0.10620821  0.08009854     0.14200
H1068       H  0.92148732  0.22592680  0.08052867     0.14200
H1069       H  0.92061518  0.22645960  0.15178819     0.14200
H1070       H  0.79639753  0.10639490  0.15128898     0.14200
C1071       C  0.85388284  0.17317373  0.95098508     0.31400
C1072       C  0.85402863  0.17200948  0.53079641     0.31400
C1073       C  0.87414929  0.15203255  0.97003447    -0.04800
C1074       C  0.87820417  0.21746551  0.97088811    -0.05600
C1075       C  0.80901516  0.15050085  0.97052880    -0.05400
C1076       C  0.87428819  0.15140244  0.51068143    -0.04800
C1077       C  0.87824631  0.21689444  0.51182184    -0.05600
C1078       C  0.80889743  0.14975497  0.51139699    -0.05400
C1079       C  0.89576243  0.13326501  0.52215850    -0.30800
N1080       N  0.90854151  0.12317704  0.98928748     0.15700
C1081       C  0.89551411  0.13439107  0.95727909    -0.30800
H1082       H  0.90143573  0.13029833  0.92704146     0.17600
C1083       C  0.89851596  0.25877841  0.52425529    -0.29800
N1084       N  0.91135498  0.28431296  0.49213115     0.14400
C1085       C  0.89847738  0.25963810  0.95944890    -0.29800
C1086       C  0.76649914  0.13162277  0.52318900    -0.30100
N1087       N  0.74146652  0.12107255  0.99064253     0.14900
H1088       H  0.75465719  0.12708788  0.55300559     0.17500
C1089       C  0.76700957  0.13315061  0.95846612    -0.30100
H1090       H  0.75566233  0.13007765  0.92858020     0.17500
H1091       H  0.90248850  0.27161396  0.92974763     0.17500
H1092       H  0.90190616  0.12811862  0.55201854     0.17600
H1093       H  0.90254796  0.26996828  0.55422717     0.17500
C1094       C  0.85297593  0.17218677  0.70085724     0.31400
C1095       C  0.85251085  0.17201049  0.78067027     0.31400
C1096       C  0.87349714  0.15173609  0.72069736    -0.04800
C1097       C  0.87659655  0.21668957  0.72027337    -0.05600
C1098       C  0.80787518  0.14913477  0.72002819    -0.05400
C1099       C  0.87338162  0.15158585  0.76133754    -0.04800
C1100       C  0.87627521  0.21659539  0.76118035    -0.05600
C1101       C  0.80748727  0.14894885  0.76094070    -0.05400
C1102       C  0.89460864  0.13334904  0.77344070    -0.30800
N1103       N  0.90744812  0.12279941  0.74089497     0.15700
C1104       C  0.89466505  0.13373926  0.70855162    -0.30800
H1105       H  0.90054148  0.12911931  0.67846799     0.17600
C1106       C  0.89609442  0.25855928  0.77313524    -0.29800
N1107       N  0.90911446  0.28374648  0.74076505     0.14400
C1108       C  0.89674377  0.25872226  0.70833727    -0.29800
C1109       C  0.76501560  0.13075280  0.77239294    -0.30100
N1110       N  0.74016480  0.11956644  0.73966075     0.14900
H1111       H  0.75302884  0.12680789  0.80209037     0.16500
C1112       C  0.76587696  0.13128625  0.70762957    -0.30100
H1113       H  0.75469655  0.12788204  0.67763234     0.17500
H1114       H  0.90118893  0.27035386  0.67845431     0.17500
H1115       H  0.90043706  0.12835305  0.80346662     0.17600
H1116       H  0.89989508  0.27005545  0.80296452     0.17500
O1117       O  0.58805074  0.01319906  0.98685471    -0.78700
O1118       O  0.99259059  0.06952275  0.95238366    -0.78800
O1119       O  0.55708347  0.10230435  0.90584890    -0.78800
O1120       O  0.96374774  0.48051773  0.52113353    -0.78700
O1121       O  0.49834052  0.08864494  0.87452322    -0.78800
O1122       O  0.53115569  0.53161042  0.51009327    -0.78700
O1123       O  0.93090126  0.01487993  0.97411133    -0.78700
O1124       O  0.59577676  0.06785351  0.95345042    -0.78800
C1125       C  0.61193236  0.05163616  0.97461883     1.11000
C1126       C  0.95820221  0.05485695  0.97140779     1.10800
C1127       C  0.53664311  0.11506220  0.88658989     1.11000
C1128       C  0.00005087  0.51129755  0.53424197     1.10900
O1129       O  0.99902243  0.44227430  0.99543777    -0.78700
O1130       O  0.97474678  0.00865785  0.85075435    -0.78800
O1131       O  0.57597158  0.51002954  0.88795102    -0.78700
O1132       O  0.90467143  0.44903828  0.91620464    -0.78700
O1133       O  0.92376222  0.51316954  0.89927890    -0.78800
O1134       O  0.53521882  0.45929098  0.92876533    -0.78700
O1135       O  0.93925115  0.41603903  0.96132467    -0.78700
O1136       O  0.54291644  0.04248415  0.84350188    -0.78800
Co1137     Co  0.53426403  0.49822284  0.96582515     1.51500
Co1138     Co  0.98710203  0.03984001  0.90200917     1.51700
Co1139     Co  0.55914253  0.04928747  0.90194272     1.51600
Co1140     Co  0.93902194  0.46760211  0.96531289     1.51500
O1141       O  0.49468823  0.00016525  0.93005264    -1.40700
C1142       C  0.96328352  0.41041235  0.98235710     1.10900
C1143       C  0.50590553  0.02112896  0.82796339     1.11000
C1144       C  0.55972304  0.47277540  0.89982642     1.10900
C1145       C  0.89627561  0.47318914  0.89956589     1.10900
O1146       O  0.58683822  0.01300897  0.73638062    -0.78700
O1147       O  0.99127802  0.06992236  0.70199033    -0.78800
O1148       O  0.55575843  0.10275676  0.65539881    -0.78800
O1149       O  0.96306688  0.48037727  0.77122582    -0.78700
O1150       O  0.49676750  0.08825832  0.62386978    -0.78800
O1151       O  0.53029716  0.53153818  0.75994679    -0.78700
O1152       O  0.93017113  0.01501911  0.72461955    -0.78700
O1153       O  0.59408805  0.06815245  0.70435351    -0.78800
C1154       C  0.61059026  0.05161986  0.72453719     1.11000
C1155       C  0.95724364  0.05500202  0.72173827     1.10800
C1156       C  0.53510219  0.11496476  0.63558625     1.11000
C1157       C  0.99946991  0.51111501  0.78424669     1.10900
O1158       O  0.99769036  0.44186966  0.74483547    -0.78700
O1159       O  0.97441108  0.00888229  0.60046546    -0.78800
O1160       O  0.57635157  0.51137160  0.63909546    -0.78700
O1161       O  0.90378289  0.44943800  0.66643236    -0.78700
O1162       O  0.92279021  0.51343429  0.64927019    -0.78800
O1163       O  0.53376386  0.45948984  0.67814242    -0.78700
O1164       O  0.93810077  0.41619178  0.71070266    -0.78700
O1165       O  0.54275611  0.04286569  0.59382401    -0.78800
Co1166     Co  0.53303953  0.49815369  0.71557895     1.51500
Co1167     Co  0.98605940  0.04001329  0.65173709     1.51700
Co1168     Co  0.55843783  0.04996023  0.65236532     1.51600
Co1169     Co  0.93817245  0.46780179  0.71538155     1.51500
O1170       O  0.49373805  0.00055348  0.68003334    -1.40700
C1171       C  0.96195924  0.41018898  0.73149888     1.10900
C1172       C  0.50590773  0.02142306  0.57798054     1.11000
C1173       C  0.55960250  0.47378453  0.65022152     1.10900
C1174       C  0.89522092  0.47352309  0.65003457     1.10900
C1175       C  0.65925134  0.35298963  0.83709137     0.31400
C1176       C  0.65896762  0.35355922  0.91701189     0.31400
C1177       C  0.63645251  0.37190051  0.85601403    -0.04800
C1178       C  0.63603635  0.30890721  0.85709188    -0.05600
C1179       C  0.70367614  0.37807780  0.85676415    -0.05400
C1180       C  0.63728533  0.37302214  0.89695132    -0.04800
C1181       C  0.63654234  0.30965544  0.89792125    -0.05600
C1182       C  0.70365653  0.37885107  0.89758237    -0.05400
C1183       C  0.61915287  0.39411024  0.90847524    -0.30800
N1184       N  0.60552230  0.40365166  0.87598934     0.15700
C1185       C  0.61541859  0.39020875  0.84369524    -0.30800
H1186       H  0.60832527  0.39418873  0.81381429     0.17600
C1187       C  0.61358215  0.26820279  0.91111036    -0.29800
N1188       N  0.59870356  0.24243275  0.87927866     0.14400
C1189       C  0.61145559  0.26644260  0.84617640    -0.29800
C1190       C  0.74610839  0.40358604  0.90941859    -0.30100
N1191       N  0.77126212  0.41638051  0.87698850     0.14900
H1192       H  0.75823163  0.41150795  0.93925635     0.17500
C1193       C  0.74604471  0.40124687  0.84449781    -0.30100
H1194       H  0.75762230  0.40613141  0.81453189     0.17500
H1195       H  0.60264736  0.25359991  0.81670352     0.17500
H1196       H  0.61687581  0.40305276  0.93806966     0.17600
H1197       H  0.60768585  0.25751781  0.94141339     0.17500
C1198       C  0.65782026  0.35268673  0.58717500     0.31400
C1199       C  0.65781819  0.35279738  0.66711482     0.31400
C1200       C  0.63707455  0.37348732  0.60651747    -0.04800
C1201       C  0.63417584  0.30875833  0.60682980    -0.05600
C1202       C  0.70253571  0.37721705  0.60682873    -0.05400
C1203       C  0.63626264  0.37261103  0.64750080    -0.04800
C1204       C  0.63362902  0.30866944  0.64765948    -0.05600
C1205       C  0.70207091  0.37663666  0.64763332    -0.05400
C1206       C  0.61585992  0.39136923  0.65942694    -0.30800
N1207       N  0.60616340  0.40503113  0.62707736     0.15700
C1208       C  0.61927719  0.39504020  0.59459243    -0.30800
H1209       H  0.61670794  0.40368143  0.56489868     0.17600
C1210       C  0.60863878  0.26663978  0.65949746    -0.29800
N1211       N  0.59563803  0.24189394  0.62702452     0.14400
C1212       C  0.61075029  0.26690288  0.59455715    -0.29800
C1213       C  0.74400430  0.39991597  0.66049786    -0.30100
N1214       N  0.76980726  0.41497497  0.62851329     0.14900
H1215       H  0.75502351  0.40541031  0.69072116     0.17500
C1216       C  0.74535056  0.40202665  0.59554683    -0.30100
H1217       H  0.75807612  0.41030856  0.56595368     0.17500
H1218       H  0.60505114  0.25548929  0.56454475     0.17500
H1219       H  0.60877136  0.39535156  0.68925690     0.17600
H1220       H  0.60007329  0.25453714  0.68926535     0.17500
C1221       C  0.66439905  0.32425077  0.73165233    -0.11900
C1222       C  0.66097179  0.35427142  0.71115080     0.10200
C1223       C  0.66859566  0.38983578  0.73178309    -0.11900
C1224       C  0.66930864  0.38999574  0.77254517    -0.11900
C1225       C  0.66221254  0.35452058  0.79311320     0.10200
C1226       C  0.66485577  0.32427355  0.77240507    -0.11900
H1227       H  0.66726796  0.30109485  0.71639734     0.14200
H1228       H  0.67446000  0.41765941  0.71660857     0.14200
H1229       H  0.67551563  0.41787325  0.78781208     0.14200
H1230       H  0.66793891  0.30109043  0.78744453     0.14200
C1231       C  0.68749425  0.34751632  0.98192809    -0.11900
C1232       C  0.65739472  0.35099734  0.96110256     0.10200
C1233       C  0.62161752  0.34417412  0.98153978    -0.11900
C1234       C  0.62125274  0.34378320  0.52228398    -0.11900
C1235       C  0.65658163  0.35003675  0.54315932     0.10200
C1236       C  0.68706625  0.34699791  0.52271264    -0.11900
H1237       H  0.71104217  0.34473355  0.96685056     0.14200
H1238       H  0.59353322  0.33836451  0.96624990     0.14200
H1239       H  0.59308028  0.33802084  0.53725935     0.14200
H1240       H  0.71032668  0.34387327  0.53805490     0.14200
C1241       C  0.55429654  0.15946227  0.63033584    -0.11900
C1242       C  0.57255367  0.19744448  0.62768799    -0.13400
C1243       C  0.85265691  0.45556071  0.63571096    -0.11900
C1244       C  0.81468557  0.43776956  0.63005399    -0.13400
C1245       C  0.57324209  0.44872428  0.63418192    -0.11900
C1246       C  0.58778623  0.42817173  0.62817936    -0.13400
C1247       C  0.55614031  0.15978782  0.88251547    -0.11900
C1248       C  0.57503043  0.19791773  0.88052941    -0.13400
C1249       C  0.85396246  0.45528461  0.88434435    -0.11900
C1250       C  0.81611595  0.43815598  0.87820146    -0.13400
C1251       C  0.57239357  0.44711983  0.88315605    -0.11900
C1252       C  0.58674483  0.42644280  0.87677807    -0.13400
C1253       C  0.94505802  0.08271577  0.73502095    -0.11900
C1254       C  0.92891572  0.10227968  0.73989574    -0.13400
C1255       C  0.93058515  0.32844776  0.74067540    -0.11900
C1256       C  0.94763361  0.36664662  0.73886757    -0.13400
C1257       C  0.69487370  0.09781488  0.73844216    -0.11900
C1258       C  0.65598889  0.07764845  0.73454590    -0.13400
C1259       C  0.94595223  0.08283149  0.98363618    -0.11900
C1260       C  0.92996010  0.10260981  0.98797079    -0.13400
C1261       C  0.94925439  0.36707217  0.99029852    -0.11900
C1262       C  0.93257208  0.32896414  0.99235199    -0.13400
C1263       C  0.65718180  0.07806261  0.98533980    -0.11900
C1264       C  0.69608792  0.09879584  0.98954359    -0.13400
C1265       C  0.89128296  0.20330592  0.88594015    -0.11900
C1266       C  0.85457178  0.17193051  0.90688111     0.10200
C1267       C  0.82163403  0.13576501  0.88647377    -0.11900
C1268       C  0.82116435  0.13544817  0.84569464    -0.11900
C1269       C  0.85390265  0.17109504  0.82473063     0.10200
C1270       C  0.89102693  0.20275945  0.84514545    -0.11900
H1271       H  0.92035645  0.22791525  0.90091935     0.14200
H1272       H  0.79641796  0.10752307  0.90187752     0.14200
H1273       H  0.79553723  0.10708883  0.83075366     0.14200
H1274       H  0.91996662  0.22698137  0.82972821     0.14200
C1275       C  0.82236907  0.13442185  0.59536494    -0.11900
C1276       C  0.85540626  0.17026560  0.57480231     0.10200
C1277       C  0.89231204  0.20163025  0.59561294    -0.11900
C1278       C  0.89182837  0.20194839  0.63640109    -0.11900
C1279       C  0.85453624  0.17072947  0.65683478     0.10200
C1280       C  0.82198994  0.13460790  0.63613965    -0.11900
H1281       H  0.79693391  0.10620840  0.58009858     0.14200
H1282       H  0.92148707  0.22592645  0.58052880     0.14200
H1283       H  0.92061548  0.22645998  0.65178833     0.14200
H1284       H  0.79639742  0.10639490  0.65128896     0.14200
C1285       C  0.85388291  0.67317380  0.45098507     0.31400
C1286       C  0.85402866  0.67200955  0.03079642     0.31400
C1287       C  0.87414927  0.65203250  0.47003441    -0.04800
C1288       C  0.87820430  0.71746557  0.47088814    -0.05600
C1289       C  0.80901521  0.65050096  0.47052883    -0.05400
C1290       C  0.87428830  0.65140258  0.01068143    -0.04800
C1291       C  0.87824624  0.71689448  0.01182181    -0.05600
C1292       C  0.80889747  0.64975499  0.01139695    -0.05400
C1293       C  0.89576254  0.63326506  0.02215870    -0.30800
N1294       N  0.90854146  0.62317693  0.48928744     0.15700
C1295       C  0.89551396  0.63439094  0.45727921    -0.30800
H1296       H  0.90143579  0.63029809  0.42704061     0.17600
C1297       C  0.89851601  0.75877845  0.02425513    -0.29800
N1298       N  0.91135498  0.78431297  0.99213108     0.14400
C1299       C  0.89847741  0.75963821  0.45944898    -0.29800
C1300       C  0.76649924  0.63162278  0.02318876    -0.30100
N1301       N  0.74146650  0.62107243  0.49064255     0.14900
H1302       H  0.75465691  0.62708772  0.05300632     0.17500
C1303       C  0.76700963  0.63315060  0.45846634    -0.30100
H1304       H  0.75566213  0.63007760  0.42857959     0.17500
H1305       H  0.90248844  0.77161404  0.42974794     0.17500
H1306       H  0.90190609  0.62811888  0.05201756     0.17600
H1307       H  0.90254822  0.76996850  0.05422747     0.17500
C1308       C  0.85297602  0.67218679  0.20085725     0.31400
C1309       C  0.85251094  0.67201053  0.28067022     0.31400
C1310       C  0.87349729  0.65173619  0.22069731    -0.04800
C1311       C  0.87659667  0.71668959  0.22027333    -0.05600
C1312       C  0.80787525  0.64913478  0.22002821    -0.05400
C1313       C  0.87338178  0.65158594  0.26133750    -0.04800
C1314       C  0.87627528  0.71659543  0.26118033    -0.05600
C1315       C  0.80748737  0.64894890  0.26094071    -0.05400
C1316       C  0.89460878  0.63334914  0.27344045    -0.30800
N1317       N  0.90744826  0.62279951  0.24089487     0.15700
C1318       C  0.89466519  0.63373938  0.20855151    -0.30800
H1319       H  0.90054148  0.62911934  0.17846787     0.17600
C1320       C  0.89609428  0.75855924  0.27313507    -0.29800
N1321       N  0.90911433  0.78374645  0.24076498     0.14400
C1322       C  0.89674380  0.75872220  0.20833727    -0.29800
C1323       C  0.76501567  0.63075272  0.27239304    -0.30100
N1324       N  0.74016486  0.61956643  0.23966083     0.14900
H1325       H  0.75302899  0.62680777  0.30209031     0.16500
C1326       C  0.76587702  0.63128619  0.20762967    -0.30100
H1327       H  0.75469657  0.62788192  0.17763232     0.17500
H1328       H  0.90118904  0.77035395  0.17845378     0.17500
H1329       H  0.90043727  0.62835289  0.30346721     0.17600
H1330       H  0.89989494  0.77005569  0.30296500     0.17500
O1331       O  0.58805068  0.51319913  0.48685464    -0.78700
O1332       O  0.99259064  0.56952274  0.45238358    -0.78800
O1333       O  0.55708344  0.60230435  0.40584895    -0.78800
O1334       O  0.96374775  0.98051770  0.02113362    -0.78700
O1335       O  0.49834044  0.58864482  0.37452327    -0.78800
O1336       O  0.53115577  0.03161038  0.01009336    -0.78700
O1337       O  0.93090139  0.51487995  0.47411135    -0.78700
O1338       O  0.59577677  0.56785360  0.45345036    -0.78800
C1339       C  0.61193232  0.55163627  0.47461885     1.11000
C1340       C  0.95820230  0.55485698  0.47140772     1.10800
C1341       C  0.53664302  0.61506214  0.38658995     1.11000
C1342       C  0.00005089  0.01129757  0.03424203     1.10900
O1343       O  0.99902233  0.94227443  0.49543778    -0.78700
O1344       O  0.97474679  0.50865768  0.35075443    -0.78800
O1345       O  0.57597173  0.01002964  0.38795111    -0.78700
O1346       O  0.90467146  0.94903833  0.41620463    -0.78700
O1347       O  0.92376213  0.01316957  0.39927900    -0.78800
O1348       O  0.53521884  0.95929108  0.42876540    -0.78700
O1349       O  0.93925119  0.91603899  0.46132449    -0.78700
O1350       O  0.54291649  0.54248418  0.34350182    -0.78800
Co1351     Co  0.53426396  0.99822290  0.46582505     1.51500
Co1352     Co  0.98710193  0.53983988  0.40200920     1.51700
Co1353     Co  0.55914256  0.54928746  0.40194265     1.51600
Co1354     Co  0.93902204  0.96760214  0.46531279     1.51500
O1355       O  0.49468821  0.50016521  0.43005254    -1.40700
C1356       C  0.96328352  0.91041239  0.48235705     1.10900
C1357       C  0.50590549  0.52112890  0.32796342     1.11000
C1358       C  0.55972304  0.97277546  0.39982649     1.10900
C1359       C  0.89627556  0.97318918  0.39956598     1.10900
O1360       O  0.58683814  0.51300892  0.23638072    -0.78700
O1361       O  0.99127807  0.56992246  0.20199028    -0.78800
O1362       O  0.55575850  0.60275675  0.15539886    -0.78800
O1363       O  0.96306686  0.98037731  0.27122591    -0.78700
O1364       O  0.49676752  0.58825835  0.12386987    -0.78800
O1365       O  0.53029710  0.03153817  0.25994682    -0.78700
O1366       O  0.93017129  0.51501910  0.22461961    -0.78700
O1367       O  0.59408816  0.56815248  0.20435359    -0.78800
C1368       C  0.61059025  0.55161984  0.22453737     1.11000
C1369       C  0.95724369  0.55500203  0.22173820     1.10800
C1370       C  0.53510223  0.61496474  0.13558633     1.11000
C1371       C  0.99946990  0.01111505  0.28424675     1.10900
O1372       O  0.99769036  0.94186954  0.24483560    -0.78700
O1373       O  0.97441099  0.50888226  0.10046543    -0.78800
O1374       O  0.57635157  0.01137162  0.13909544    -0.78700
O1375       O  0.90378303  0.94943812  0.16643245    -0.78700
O1376       O  0.92279023  0.01343436  0.14927031    -0.78800
O1377       O  0.53376388  0.95948986  0.17814245    -0.78700
O1378       O  0.93810099  0.91619190  0.21070259    -0.78700
O1379       O  0.54275603  0.54286546  0.09382404    -0.78800
Co1380     Co  0.53303949  0.99815361  0.21557907     1.51500
Co1381     Co  0.98605937  0.54001330  0.15173712     1.51700
Co1382     Co  0.55843784  0.54996015  0.15236538     1.51600
Co1383     Co  0.93817257  0.96780186  0.21538163     1.51500
O1384       O  0.49373804  0.50055352  0.18003341    -1.40700
C1385       C  0.96195926  0.91018895  0.23149895     1.10900
C1386       C  0.50590771  0.52142296  0.07798055     1.11000
C1387       C  0.55960251  0.97378456  0.15022152     1.10900
C1388       C  0.89522102  0.97352316  0.15003462     1.10900
C1389       C  0.65925129  0.85298966  0.33709133     0.31400
C1390       C  0.65896760  0.85355928  0.41701180     0.31400
C1391       C  0.63645252  0.87190063  0.35601397    -0.04800
C1392       C  0.63603619  0.80890721  0.35709181    -0.05600
C1393       C  0.70367613  0.87807788  0.35676409    -0.05400
C1394       C  0.63728533  0.87302223  0.39695128    -0.04800
C1395       C  0.63654226  0.80965549  0.39792118    -0.05600
C1396       C  0.70365655  0.87885113  0.39758232    -0.05400
C1397       C  0.61915274  0.89411014  0.40847504    -0.30800
N1398       N  0.60552225  0.90365171  0.37598936     0.15700
C1399       C  0.61541861  0.89020890  0.34369516    -0.30800
H1400       H  0.60832532  0.89418889  0.31381445     0.17600
C1401       C  0.61358223  0.76820284  0.41111038    -0.29800
N1402       N  0.59870367  0.74243278  0.37927862     0.14400
C1403       C  0.61145551  0.76644261  0.34617654    -0.29800
C1404       C  0.74610839  0.90358609  0.40941838    -0.30100
N1405       N  0.77126211  0.91638058  0.37698844     0.14900
H1406       H  0.75823199  0.91150814  0.43925696     0.17500
C1407       C  0.74604472  0.90124692  0.34449769    -0.30100
H1408       H  0.75762218  0.90613127  0.31453201     0.17500
H1409       H  0.60264699  0.75359948  0.31670271     0.17500
H1410       H  0.61687552  0.90305289  0.43807052     0.17600
H1411       H  0.60768607  0.75751801  0.44141315     0.17500
C1412       C  0.65782025  0.85268673  0.08717506     0.31400
C1413       C  0.65781819  0.85279736  0.16711485     0.31400
C1414       C  0.63707468  0.87348747  0.10651753    -0.04800
C1415       C  0.63417575  0.80875829  0.10682982    -0.05600
C1416       C  0.70253572  0.87721698  0.10682876    -0.05400
C1417       C  0.63626273  0.87261112  0.14750086    -0.04800
C1418       C  0.63362895  0.80866941  0.14765948    -0.05600
C1419       C  0.70207089  0.87663656  0.14763335    -0.05400
C1420       C  0.61585986  0.89136917  0.15942696    -0.30800
N1421       N  0.60616338  0.90503115  0.12707743     0.15700
C1422       C  0.61927730  0.89504031  0.09459255    -0.30800
H1423       H  0.61670804  0.90368158  0.06489859     0.17600
C1424       C  0.60863868  0.76663972  0.15949750    -0.29800
N1425       N  0.59563808  0.74189390  0.12702456     0.14400
C1426       C  0.61075030  0.76690279  0.09455715    -0.29800
C1427       C  0.74400428  0.89991593  0.16049803    -0.30100
N1428       N  0.76980729  0.91497504  0.12851339     0.14900
H1429       H  0.75502325  0.90541019  0.19072099     0.17500
C1430       C  0.74535057  0.90202656  0.09554705    -0.30100
H1431       H  0.75807642  0.91030860  0.06595329     0.17500
H1432       H  0.60505128  0.75548925  0.06454500     0.17500
H1433       H  0.60877106  0.89535135  0.18925725     0.17600
H1434       H  0.60007319  0.75453715  0.18926527     0.17500
C1435       C  0.66439907  0.82425070  0.23165228    -0.11900
C1436       C  0.66097186  0.85427144  0.21115083     0.10200
C1437       C  0.66859557  0.88983579  0.23178312    -0.11900
C1438       C  0.66930845  0.88999556  0.27254516    -0.11900
C1439       C  0.66221246  0.85452054  0.29311319     0.10200
C1440       C  0.66485575  0.82427348  0.27240508    -0.11900
H1441       H  0.66726791  0.80109510  0.21639752     0.14200
H1442       H  0.67445981  0.91765909  0.21660884     0.14200
H1443       H  0.67551555  0.91787356  0.28781234     0.14200
H1444       H  0.66793886  0.80109054  0.28744443     0.14200
C1445       C  0.68749421  0.84751638  0.48192799    -0.11900
C1446       C  0.65739470  0.85099742  0.46110248     0.10200
C1447       C  0.62161740  0.84417418  0.48153963    -0.11900
C1448       C  0.62125265  0.84378308  0.02228409    -0.11900
C1449       C  0.65658157  0.85003662  0.04315940     0.10200
C1450       C  0.68706625  0.84699778  0.02271277    -0.11900
H1451       H  0.71104209  0.84473368  0.46685049     0.14200
H1452       H  0.59353369  0.83836470  0.46625013     0.14200
H1453       H  0.59308055  0.83802084  0.03725929     0.14200
H1454       H  0.71032626  0.84387315  0.03805479     0.14200
C1455       C  0.55429662  0.65946223  0.13033580    -0.11900
C1456       C  0.57255373  0.69744440  0.12768803    -0.13400
C1457       C  0.85265701  0.95556077  0.13571091    -0.11900
C1458       C  0.81468564  0.93776964  0.13005409    -0.13400
C1459       C  0.57324207  0.94872432  0.13418186    -0.11900
C1460       C  0.58778622  0.92817178  0.12817933    -0.13400
C1461       C  0.55614019  0.65978780  0.38251542    -0.11900
C1462       C  0.57503047  0.69791771  0.38052945    -0.13400
C1463       C  0.85396244  0.95528459  0.38434433    -0.11900
C1464       C  0.81611596  0.93815592  0.37820139    -0.13400
C1465       C  0.57239340  0.94711977  0.38315614    -0.11900
C1466       C  0.58674472  0.92644280  0.37677813    -0.13400
C1467       C  0.94505792  0.58271566  0.23502077    -0.11900
C1468       C  0.92891566  0.60227957  0.23989557    -0.13400
C1469       C  0.93058493  0.82844769  0.24067540    -0.11900
C1470       C  0.94763342  0.86664655  0.23886767    -0.13400
C1471       C  0.69487375  0.59781486  0.23844227    -0.11900
C1472       C  0.65598892  0.57764834  0.23454605    -0.13400
C1473       C  0.94595238  0.58283158  0.48363603    -0.11900
C1474       C  0.92996022  0.60260988  0.48797071    -0.13400
C1475       C  0.94925444  0.86707224  0.49029862    -0.11900
C1476       C  0.93257206  0.82896419  0.49235216    -0.13400
C1477       C  0.65718178  0.57806273  0.48533980    -0.11900
C1478       C  0.69608790  0.59879591  0.48954363    -0.13400
C1479       C  0.89128301  0.70330590  0.38594003    -0.11900
C1480       C  0.85457186  0.67193054  0.40688104     0.10200
C1481       C  0.82163411  0.63576512  0.38647369    -0.11900
C1482       C  0.82116425  0.63544815  0.34569453    -0.11900
C1483       C  0.85390269  0.67109505  0.32473055     0.10200
C1484       C  0.89102691  0.70275951  0.34514534    -0.11900
H1485       H  0.92035675  0.72791547  0.40091936     0.14200
H1486       H  0.79641779  0.60752291  0.40187760     0.14200
H1487       H  0.79553761  0.60708937  0.33075387     0.14200
H1488       H  0.91996647  0.72698146  0.32972808     0.14200
C1489       C  0.82236920  0.63442196  0.09536499    -0.11900
C1490       C  0.85540627  0.67026572  0.07480237     0.10200
C1491       C  0.89231210  0.70163032  0.09561298    -0.11900
C1492       C  0.89182865  0.70194859  0.13640127    -0.11900
C1493       C  0.85453634  0.67072947  0.15683481     0.10200
C1494       C  0.82198997  0.63460777  0.13613976    -0.11900
H1495       H  0.79693380  0.60620825  0.08009852     0.14200
H1496       H  0.92148709  0.72592646  0.08052892     0.14200
H1497       H  0.92061453  0.72645908  0.15178780     0.14200
H1498       H  0.79639818  0.60639554  0.15128859     0.14200
C1499       C  0.85388291  0.67317382  0.95098508     0.31400
C1500       C  0.85402858  0.67200941  0.53079641     0.31400
C1501       C  0.87414937  0.65203263  0.97003446    -0.04800
C1502       C  0.87820422  0.71746559  0.97088812    -0.05600
C1503       C  0.80901524  0.65050097  0.97052880    -0.05400
C1504       C  0.87428813  0.65140238  0.51068139    -0.04800
C1505       C  0.87824630  0.71689439  0.51182183    -0.05600
C1506       C  0.80889742  0.64975498  0.51139697    -0.05400
C1507       C  0.89576247  0.63326501  0.52215861    -0.30800
N1508       N  0.90854143  0.62317694  0.98928748     0.15700
C1509       C  0.89551403  0.63439097  0.95727907    -0.30800
H1510       H  0.90143561  0.63029819  0.92704154     0.17600
C1511       C  0.89851591  0.75877835  0.52425530    -0.29800
N1512       N  0.91135495  0.78431294  0.49213119     0.14400
C1513       C  0.89847744  0.75963821  0.95944887    -0.29800
C1514       C  0.76649911  0.63162265  0.52318900    -0.30100
N1515       N  0.74146657  0.62107246  0.99064253     0.14900
H1516       H  0.75465711  0.62708764  0.55300556     0.17500
C1517       C  0.76700964  0.63315066  0.95846612    -0.30100
H1518       H  0.75566240  0.63007774  0.92858015     0.17500
H1519       H  0.90248854  0.77161398  0.92974788     0.17500
H1520       H  0.90190619  0.62811889  0.55201792     0.17600
H1521       H  0.90254784  0.76996814  0.55422718     0.17500
C1522       C  0.85297594  0.67218680  0.70085724     0.31400
C1523       C  0.85251093  0.67201056  0.78067027     0.31400
C1524       C  0.87349720  0.65173617  0.72069735    -0.04800
C1525       C  0.87659665  0.71668960  0.72027338    -0.05600
C1526       C  0.80787522  0.64913485  0.72002818    -0.05400
C1527       C  0.87338170  0.65158593  0.76133754    -0.04800
C1528       C  0.87627535  0.71659544  0.76118037    -0.05600
C1529       C  0.80748733  0.64894893  0.76094069    -0.05400
C1530       C  0.89460871  0.63334911  0.77344065    -0.30800
N1531       N  0.90744818  0.62279949  0.74089492     0.15700
C1532       C  0.89466511  0.63373939  0.70855165    -0.30800
H1533       H  0.90054150  0.62911935  0.67846768     0.17600
C1534       C  0.89609448  0.75855932  0.77313524    -0.29800
N1535       N  0.90911451  0.78374647  0.74076502     0.14400
C1536       C  0.89674390  0.75872222  0.70833731    -0.29800
C1537       C  0.76501566  0.63075271  0.77239290    -0.30100
N1538       N  0.74016482  0.61956646  0.73966077     0.14900
H1539       H  0.75302880  0.62680763  0.80209062     0.16500
C1540       C  0.76587697  0.63128623  0.70762956    -0.30100
H1541       H  0.75469654  0.62788197  0.67763242     0.17500
H1542       H  0.90118910  0.77035388  0.67845402     0.17500
H1543       H  0.90043707  0.62835302  0.80346672     0.17600
H1544       H  0.89989507  0.77005553  0.80296451     0.17500
O1545       O  0.58805080  0.51319911  0.98685475    -0.78700
O1546       O  0.99259070  0.56952274  0.95238368    -0.78800
O1547       O  0.55708356  0.60230439  0.90584892    -0.78800
O1548       O  0.96374774  0.98051770  0.52113356    -0.78700
O1549       O  0.49834062  0.58864486  0.87452317    -0.78800
O1550       O  0.53115568  0.03161042  0.51009327    -0.78700
O1551       O  0.93090130  0.51487997  0.97411130    -0.78700
O1552       O  0.59577672  0.56785346  0.95345040    -0.78800
C1553       C  0.61193239  0.55163621  0.97461883     1.11000
C1554       C  0.95820230  0.55485699  0.97140778     1.10800
C1555       C  0.53664317  0.61506218  0.88658990     1.11000
C1556       C  0.00005089  0.01129758  0.53424198     1.10900
O1557       O  0.99902242  0.94227431  0.99543773    -0.78700
O1558       O  0.97474675  0.50865768  0.85075436    -0.78800
O1559       O  0.57597164  0.01002961  0.88795108    -0.78700
O1560       O  0.90467147  0.94903837  0.91620463    -0.78700
O1561       O  0.92376218  0.01316960  0.89927890    -0.78800
O1562       O  0.53521878  0.95929100  0.92876531    -0.78700
O1563       O  0.93925111  0.91603901  0.96132468    -0.78700
O1564       O  0.54291642  0.54248419  0.84350188    -0.78800
Co1565     Co  0.53426402  0.99822286  0.96582512     1.51500
Co1566     Co  0.98710204  0.53983991  0.90200917     1.51700
Co1567     Co  0.55914250  0.54928741  0.90194271     1.51600
Co1568     Co  0.93902197  0.96760215  0.96531289     1.51500
O1569       O  0.49468822  0.50016519  0.93005267    -1.40700
C1570       C  0.96328351  0.91041235  0.98235709     1.10900
C1571       C  0.50590550  0.52112890  0.82796339     1.11000
C1572       C  0.55972303  0.97277544  0.89982643     1.10900
C1573       C  0.89627560  0.97318920  0.89956590     1.10900
O1574       O  0.58683818  0.51300892  0.73638055    -0.78700
O1575       O  0.99127803  0.56992242  0.70199033    -0.78800
O1576       O  0.55575843  0.60275672  0.65539878    -0.78800
O1577       O  0.96306691  0.98037723  0.77122584    -0.78700
O1578       O  0.49676748  0.58825832  0.62386977    -0.78800
O1579       O  0.53029712  0.03153818  0.75994683    -0.78700
O1580       O  0.93017115  0.51501907  0.72461951    -0.78700
O1581       O  0.59408809  0.56815247  0.70435350    -0.78800
C1582       C  0.61059025  0.55161985  0.72453721     1.11000
C1583       C  0.95724363  0.55500199  0.72173827     1.10800
C1584       C  0.53510217  0.61496472  0.63558624     1.11000
C1585       C  0.99946989  0.01111499  0.78424673     1.10900
O1586       O  0.99769031  0.94186954  0.74483555    -0.78700
O1587       O  0.97441102  0.50888220  0.60046547    -0.78800
O1588       O  0.57635157  0.01137165  0.63909544    -0.78700
O1589       O  0.90378297  0.94943814  0.66643235    -0.78700
O1590       O  0.92279025  0.01343441  0.64927019    -0.78800
O1591       O  0.53376390  0.95948987  0.67814249    -0.78700
O1592       O  0.93810082  0.91619185  0.71070264    -0.78700
O1593       O  0.54275602  0.54286552  0.59382403    -0.78800
Co1594     Co  0.53303948  0.99815361  0.71557909     1.51500
Co1595     Co  0.98605940  0.54001329  0.65173709     1.51700
Co1596     Co  0.55843779  0.54996016  0.65236533     1.51600
Co1597     Co  0.93817250  0.96780187  0.71538155     1.51500
O1598       O  0.49373800  0.50055349  0.68003334    -1.40700
C1599       C  0.96195920  0.91018894  0.73149889     1.10900
C1600       C  0.50590768  0.52142294  0.57798056     1.11000
C1601       C  0.55960253  0.97378459  0.65022154     1.10900
C1602       C  0.89522098  0.97352321  0.65003456     1.10900
C1603       C  0.65925137  0.85298967  0.83709136     0.31400
C1604       C  0.65896763  0.85355930  0.91701188     0.31400
C1605       C  0.63645257  0.87190062  0.85601401    -0.04800
C1606       C  0.63603636  0.80890725  0.85709187    -0.05600
C1607       C  0.70367618  0.87807790  0.85676416    -0.05400
C1608       C  0.63728534  0.87302220  0.89695131    -0.04800
C1609       C  0.63654234  0.80965550  0.89792124    -0.05600
C1610       C  0.70365655  0.87885118  0.89758237    -0.05400
C1611       C  0.61915279  0.89411022  0.90847520    -0.30800
N1612       N  0.60552233  0.90365174  0.87598934     0.15700
C1613       C  0.61541864  0.89020887  0.84369522    -0.30800
H1614       H  0.60832529  0.89418881  0.81381435     0.17600
C1615       C  0.61358216  0.76820284  0.91111035    -0.29800
N1616       N  0.59870359  0.74243279  0.87927868     0.14400
C1617       C  0.61145558  0.76644260  0.84617641    -0.29800
C1618       C  0.74610841  0.90358615  0.90941859    -0.30100
N1619       N  0.77126214  0.91638058  0.87698851     0.14900
H1620       H  0.75823166  0.91150803  0.93925636     0.17500
C1621       C  0.74604476  0.90124697  0.84449780    -0.30100
H1622       H  0.75762232  0.90613141  0.81453200     0.17500
H1623       H  0.60264735  0.75359991  0.81670357     0.17500
H1624       H  0.61687564  0.90305272  0.93806986     0.17600
H1625       H  0.60768587  0.75751787  0.94141342     0.17500
C1626       C  0.65782022  0.85268673  0.58717499     0.31400
C1627       C  0.65781819  0.85279738  0.66711481     0.31400
C1628       C  0.63707462  0.87348743  0.60651746    -0.04800
C1629       C  0.63417580  0.80875831  0.60682982    -0.05600
C1630       C  0.70253570  0.87721704  0.60682871    -0.05400
C1631       C  0.63626268  0.87261109  0.64750079    -0.04800
C1632       C  0.63362898  0.80866942  0.64765947    -0.05600
C1633       C  0.70207090  0.87663661  0.64763331    -0.05400
C1634       C  0.61585984  0.89136917  0.65942693    -0.30800
N1635       N  0.60616344  0.90503121  0.62707737     0.15700
C1636       C  0.61927728  0.89504033  0.59459244    -0.30800
H1637       H  0.61670803  0.90368159  0.56489867     0.17600
C1638       C  0.60863872  0.76663970  0.65949750    -0.29800
N1639       N  0.59563799  0.74189387  0.62702452     0.14400
C1640       C  0.61075024  0.76690281  0.59455712    -0.29800
C1641       C  0.74400429  0.89991590  0.66049783    -0.30100
N1642       N  0.76980728  0.91497500  0.62851330     0.14900
H1643       H  0.75502352  0.90541028  0.69072128     0.17500
C1644       C  0.74535057  0.90202662  0.59554680    -0.30100
H1645       H  0.75807607  0.91030848  0.56595383     0.17500
H1646       H  0.60505115  0.75548933  0.56454505     0.17500
H1647       H  0.60877116  0.89535136  0.68925691     0.17600
H1648       H  0.60007331  0.75453717  0.68926505     0.17500
C1649       C  0.66439896  0.82425070  0.73165232    -0.11900
C1650       C  0.66097183  0.85427143  0.71115080     0.10200
C1651       C  0.66859571  0.88983591  0.73178305    -0.11900
C1652       C  0.66930859  0.88999559  0.77254512    -0.11900
C1653       C  0.66221257  0.85452060  0.79311320     0.10200
C1654       C  0.66485568  0.82427345  0.77240507    -0.11900
H1655       H  0.66726781  0.80109476  0.71639735     0.14200
H1656       H  0.67445990  0.91765886  0.71660891     0.14200
H1657       H  0.67551569  0.91787382  0.78781242     0.14200
H1658       H  0.66793876  0.80109038  0.78744448     0.14200
C1659       C  0.68749425  0.84751639  0.98192808    -0.11900
C1660       C  0.65739477  0.85099746  0.96110256     0.10200
C1661       C  0.62161754  0.84417421  0.98153980    -0.11900
C1662       C  0.62125250  0.84378308  0.52228404    -0.11900
C1663       C  0.65658151  0.85003661  0.54315931     0.10200
C1664       C  0.68706613  0.84699780  0.52271265    -0.11900
H1665       H  0.71104226  0.84473367  0.96685049     0.14200
H1666       H  0.59353328  0.83836466  0.96624993     0.14200
H1667       H  0.59308093  0.83802094  0.53725889     0.14200
H1668       H  0.71032652  0.84387312  0.53805489     0.14200
C1669       C  0.55429650  0.65946220  0.63033584    -0.11900
C1670       C  0.57255361  0.69744439  0.62768799    -0.13400
C1671       C  0.85265695  0.95556084  0.63571096    -0.11900
C1672       C  0.81468559  0.93776967  0.63005399    -0.13400
C1673       C  0.57324214  0.94872437  0.63418193    -0.11900
C1674       C  0.58778631  0.92817184  0.62817938    -0.13400
C1675       C  0.55614029  0.65978783  0.88251547    -0.11900
C1676       C  0.57503042  0.69791773  0.88052944    -0.13400
C1677       C  0.85396246  0.95528460  0.88434434    -0.11900
C1678       C  0.81611595  0.93815593  0.87820146    -0.13400
C1679       C  0.57239348  0.94711981  0.88315603    -0.11900
C1680       C  0.58674475  0.92644280  0.87677807    -0.13400
C1681       C  0.94505790  0.58271566  0.73502090    -0.11900
C1682       C  0.92891561  0.60227958  0.73989562    -0.13400
C1683       C  0.93058510  0.82844771  0.74067535    -0.11900
C1684       C  0.94763352  0.86664657  0.73886752    -0.13400
C1685       C  0.69487373  0.59781492  0.73844217    -0.11900
C1686       C  0.65598889  0.57764840  0.73454592    -0.13400
C1687       C  0.94595236  0.58283158  0.98363615    -0.11900
C1688       C  0.92996016  0.60260985  0.98797079    -0.13400
C1689       C  0.94925442  0.86707221  0.99029853    -0.11900
C1690       C  0.93257213  0.82896421  0.99235200    -0.13400
C1691       C  0.65718186  0.57806276  0.98533979    -0.11900
C1692       C  0.69608798  0.59879590  0.98954358    -0.13400
C1693       C  0.89128295  0.70330589  0.88594013    -0.11900
C1694       C  0.85457181  0.67193059  0.90688111     0.10200
C1695       C  0.82163403  0.63576508  0.88647378    -0.11900
C1696       C  0.82116439  0.63544824  0.84569466    -0.11900
C1697       C  0.85390268  0.67109505  0.82473063     0.10200
C1698       C  0.89102698  0.70275952  0.84514544    -0.11900
H1699       H  0.92035676  0.72791548  0.90091951     0.14200
H1700       H  0.79641802  0.60752320  0.90187753     0.14200
H1701       H  0.79553714  0.60708875  0.83075364     0.14200
H1702       H  0.91996645  0.72698131  0.82972829     0.14200
C1703       C  0.82236897  0.63442167  0.59536490    -0.11900
C1704       C  0.85540621  0.67026549  0.57480231     0.10200
C1705       C  0.89231198  0.70163022  0.59561292    -0.11900
C1706       C  0.89182831  0.70194830  0.63640108    -0.11900
C1707       C  0.85453622  0.67072946  0.65683477     0.10200
C1708       C  0.82198982  0.63460773  0.63613973    -0.11900
H1709       H  0.79693425  0.60620871  0.58009890     0.14200
H1710       H  0.92148684  0.72592631  0.58052886     0.14200
H1711       H  0.92061560  0.72645998  0.65178836     0.14200
H1712       H  0.79639790  0.60639539  0.65128866     0.14200
loop_ 
_geom_bond_atom_site_label_1 
_geom_bond_atom_site_label_2 
_geom_bond_distance 
_geom_bond_site_symmetry_2 
_ccdc_geom_bond_type 
C1            C3   1.530       .  S
C1            C5   1.543       .  S
C1            C4   1.544       .  S
C1          C196   1.501       .  S
C2            C6   1.532       .  S
C2            C8   1.549       .  S
C2            C7   1.546       .  S
C2          C206   1.500       .  S
C3           C11   1.379       .  A
C3          C220   1.382       .  A
C4           C15   1.383       .  A
C4          C221   1.392       .  A
C5           C19   1.383       .  A
C5          C222   1.390       .  A
C6            C9   1.383       .  A
C6          C217   1.382   1_554  A
C7           C13   1.385       .  A
C7          C218   1.392   1_554  A
C8           C16   1.390       .  A
C8          C219   1.390   1_554  A
C9           H22   1.083       .  S
C9          N224   1.357   1_554  A
N10          C11   1.356       .  A
N10         C223   1.357       .  A
N10         C190   1.407       .  S
C11          H12   1.083       .  S
C13          H23   1.082       .  S
C13          N14   1.354   1_554  A
N14         C229   1.355       .  A
N14         C406   1.407       .  S
C15          H21   1.082       .  S
C15         N228   1.355       .  A
C16          H18   1.082       .  S
C16         N231   1.357   1_554  A
N17          C19   1.354       .  A
N17         C230   1.357       .  A
N17         C194   1.410       .  S
C19          H20   1.082       .  S
C24          C26   1.528       .  S
C24          C28   1.544       .  S
C24          C27   1.544       .  S
C24         C209   1.501       .  S
C25          C29   1.533       .  S
C25          C31   1.548       .  S
C25          C30   1.545       .  S
C25         C199   1.500       .  S
C26          C34   1.377       .  A
C26          C29   1.382       .  A
C27          C38   1.384       .  A
C27          C30   1.391       .  A
C28          C42   1.383       .  A
C28          C31   1.391       .  A
C29          C32   1.384       .  A
C30          C36   1.385       .  A
C31          C39   1.389       .  A
C32          H45   1.083       .  S
C32          N33   1.358       .  A
N33          C34   1.355       .  A
N33         C184   1.407       .  S
C34          H35   1.083       .  S
C36          H46   1.082       .  S
C36          N37   1.354       .  A
N37          C38   1.355       .  A
N37         C185   1.408       .  S
C38          H44   1.082       .  S
C39          H41   1.082       .  S
C39          N40   1.356       .  A
N40          C42   1.354       .  A
N40         C187   1.410       .  S
C42          H43   1.082       .  S
O47          C55   1.274       .  A
O47        Co495   1.902   1_545  S
O48          C56   1.259       .  A
O48         Co68   1.998       .  S
O49          C57   1.295       .  A
O49         Co69   2.066       .  S
O50          C58   1.271       .  A
O50        Co284   2.046   1_554  S
O51          C57   1.268   1_655  A
O51        Co924   1.897       .  S
O52         C914   1.270       .  A
O52        Co281   2.018   1_554  S
O53          C56   1.265       .  A
O53        Co498   2.011   1_545  S
O54          C55   1.300       .  A
O54         Co69   2.087       .  S
C55         C193   1.447       .  S
C56         C189   1.442       .  S
C57         C177   1.425       .  S
C58         O908   1.270       .  A
C58        C1386   1.521       .  S
O59          C72   1.273       .  A
O59        Co923   2.022       .  S
O60         C929   1.253       .  A
O60         Co68   2.010       .  S
O61          C74   1.248       .  A
O61        Co497   1.984       .  S
O62          C75   1.261       .  A
O62         Co70   1.979       .  S
O63          C75   1.262       .  A
O63        Co496   1.992       .  S
O64          C74   1.243       .  A
O64         Co67   1.963       .  S
O65          C72   1.261       .  A
O65         Co70   1.971       .  S
O66          C73   1.261       .  A
O66         Co69   2.051       .  S
Co67        O475   1.902       .  S
Co67        O266   2.018       .  S
Co67        O915   2.022   1_455  S
Co67        O499   1.954   1_455  S
Co68        O907   1.897       .  S
Co68        O491   1.992       .  S
Co68        O927   1.936       .  S
Co69        O489   1.984       .  S
Co69         O71   2.266   1_455  S
Co70        O264   2.046       .  S
Co70        O481   2.011       .  S
Co70       O1355   2.101       .  S
O71        Co495   1.954   1_645  S
O71        Co924   1.936       .  S
O71       Co1354   2.101   1_545  S
C72         C191   1.441       .  S
C73         O916   1.253   1_455  A
C73        C1371   1.520   1_455  S
C74         C181   1.426       .  S
C75         C179   1.425       .  S
O76          C84   1.274       .  A
O76        Co524   1.900   1_545  S
O77          C85   1.260       .  A
O77         Co97   2.002       .  S
O78          C86   1.296       .  A
O78         Co98   2.070       .  S
O79          C87   1.272       .  A
O79         Co99   2.049       .  S
O80          C86   1.267   1_655  A
O80        Co953   1.892       .  S
O81         C943   1.268   1_455  A
O81         Co96   2.014       .  S
O82          C85   1.264       .  A
O82        Co527   2.008   1_545  S
O83          C84   1.301       .  A
O83         Co98   2.084       .  S
C84         C188   1.446       .  S
C85         C183   1.442       .  S
C86         C171   1.424       .  S
C87         O937   1.268       .  A
C87        C1357   1.520       .  S
O88         C101   1.274       .  A
O88        Co952   2.025       .  S
O89         C958   1.255       .  A
O89         Co97   2.012       .  S
O90         C103   1.248       .  A
O90        Co526   1.985       .  S
O91         C104   1.259       .  A
O91         Co99   1.975       .  S
O92         C104   1.261       .  A
O92        Co525   1.990       .  S
O93         C103   1.242       .  A
O93         Co96   1.959       .  S
O94         C101   1.260       .  A
O94         Co99   1.968       .  S
O95         C102   1.261       .  A
O95         Co98   2.049       .  S
Co96        O504   1.900       .  S
Co96        O944   2.025   1_455  S
Co96        O528   1.950   1_455  S
Co97        O936   1.892       .  S
Co97        O520   1.990       .  S
Co97        O956   1.936       .  S
Co98        O518   1.985       .  S
Co98        O100   2.268   1_455  S
Co99        O510   2.008       .  S
Co99       O1384   2.100       .  S
O100       Co524   1.950   1_645  S
O100       Co953   1.936       .  S
O100      Co1383   2.100   1_545  S
C101        C186   1.442       .  S
C102        O945   1.255   1_455  A
C102       C1342   1.521       .  S
C103        C175   1.425       .  S
C104        C173   1.422       .  S
C105        C107   1.541       .  S
C105        C109   1.528       .  S
C105        C108   1.539       .  S
C105        C155   1.498       .  S
C106        C110   1.536       .  S
C106        C112   1.534       .  S
C106        C111   1.524       .  S
C106        C162   1.501       .  S
C107        C115   1.382       .  A
C107        C110   1.393       .  A
C108        C119   1.380       .  A
C108        C111   1.389       .  A
C109        C123   1.377       .  A
C109        C112   1.388       .  A
C110        C113   1.374       .  A
C111        C117   1.372       .  A
C112        C120   1.374       .  A
C113        H126   1.082       .  S
C113        N114   1.350       .  A
N114        C115   1.352       .  A
N114        C182   1.396       .  S
C115        H116   1.082       .  S
C117        H127   1.083       .  S
C117        N118   1.351       .  A
N118        C119   1.353       .  A
N118        C178   1.395       .  S
C119        H125   1.081       .  S
C120        H122   1.082       .  S
C120        N121   1.352       .  A
N121        C123   1.353       .  A
N121        C180   1.395       .  S
C123        H124   1.082       .  S
C128        C130   1.541       .  S
C128        C132   1.536       .  S
C128        C131   1.529       .  S
C128        C165   1.499       .  S
C129        C133   1.536       .  S
C129        C135   1.523       .  S
C129        C134   1.532       .  S
C129        C152   1.500       .  S
C130        C138   1.381       .  A
C130        C133   1.394       .  A
C131        C142   1.375       .  A
C131        C134   1.389       .  A
C132        C146   1.380       .  A
C132        C135   1.388       .  A
C133        C136   1.374       .  A
C134        C140   1.375       .  A
C135        C143   1.369       .  A
C136        H149   1.082       .  S
C136        N137   1.351       .  A
N137        C138   1.351       .  A
N137        C176   1.395       .  S
C138        H139   1.082       .  S
C140        H150   1.082       .  S
C140        N141   1.350       .  A
N141        C142   1.353       .  A
N141        C172   1.394       .  S
C142        H148   1.082       .  S
C143        H145   1.083       .  S
C143        N144   1.350       .  A
N144        C146   1.352       .  A
N144        C174   1.393       .  S
C146        H147   1.082       .  S
C151        C152   1.403       .  A
C151        C156   1.386       .  A
C151        H157   1.080       .  S
C152        C153   1.402       .  A
C153        C154   1.386       .  A
C153        H158   1.080       .  S
C154        C155   1.403       .  A
C154        H159   1.081       .  S
C155        C156   1.401       .  A
C156        H160   1.080       .  S
C161        C162   1.403       .  A
C161        C380   1.387       .  A
C161        H167   1.081       .  S
C162        C163   1.403       .  A
C163        C378   1.386       .  A
C163        H168   1.081       .  S
C164        C165   1.402       .  A
C164        C377   1.386   1_554  A
C164        H169   1.081       .  S
C165        C166   1.403       .  A
C166        C375   1.387   1_554  A
C166        H170   1.081       .  S
C171        C172   1.199       .  T
C173        C174   1.198       .  T
C175        C176   1.200       .  T
C177        C178   1.200       .  T
C179        C180   1.200       .  T
C181        C182   1.201       .  T
C183        C184   1.210       .  T
C185        C186   1.211       .  T
C187        C188   1.212       .  T
C189        C190   1.211       .  T
C191        C192   1.210       .  T
C192        N228   1.407       .  S
C193        C194   1.213       .  T
C195        C196   1.402       .  A
C195        C200   1.387       .  A
C195        H201   1.080       .  S
C196        C197   1.404       .  A
C197        C198   1.387       .  A
C197        H202   1.081       .  S
C198        C199   1.401       .  A
C198        H203   1.081       .  S
C199        C200   1.404       .  A
C200        H204   1.081       .  S
C205        C206   1.402       .  A
C205        C210   1.387       .  A
C205        H211   1.081       .  S
C206        C207   1.403       .  A
C207        C208   1.387       .  A
C207        H212   1.081       .  S
C208        C209   1.403       .  A
C208        H213   1.081       .  S
C209        C210   1.403       .  A
C210        H214   1.081       .  S
C215        C217   1.530       .  S
C215        C219   1.543       .  S
C215        C218   1.544       .  S
C215        C410   1.501       .  S
C216        C220   1.532       .  S
C216        C222   1.549       .  S
C216        C221   1.546       .  S
C216        C420   1.500       .  S
C217        C225   1.379       .  A
C218        C229   1.383       .  A
C219        C233   1.383       .  A
C220        C223   1.383       .  A
C221        C227   1.385       .  A
C222        C230   1.390       .  A
C223        H236   1.083       .  S
N224        C225   1.356       .  A
N224        C404   1.407       .  S
C225        H226   1.083       .  S
C227        H237   1.082       .  S
C227        N228   1.354       .  A
C229        H235   1.082       .  S
C230        H232   1.082       .  S
N231        C233   1.354       .  A
N231        C408   1.410       .  S
C233        H234   1.082       .  S
C238        C240   1.528       .  S
C238        C242   1.544       .  S
C238        C241   1.544       .  S
C238        C423   1.501       .  S
C239        C243   1.533       .  S
C239        C245   1.548       .  S
C239        C244   1.545       .  S
C239        C413   1.500       .  S
C240        C248   1.377       .  A
C240        C243   1.382       .  A
C241        C252   1.384       .  A
C241        C244   1.391       .  A
C242        C256   1.383       .  A
C242        C245   1.391       .  A
C243        C246   1.384       .  A
C244        C250   1.385       .  A
C245        C253   1.389       .  A
C246        H259   1.083       .  S
C246        N247   1.358       .  A
N247        C248   1.355       .  A
N247        C398   1.407       .  S
C248        H249   1.083       .  S
C250        H260   1.082       .  S
C250        N251   1.354       .  A
N251        C252   1.355       .  A
N251        C399   1.408       .  S
C252        H258   1.082       .  S
C253        H255   1.082       .  S
C253        N254   1.356       .  A
N254        C256   1.354       .  A
N254        C401   1.410       .  S
C256        H257   1.082       .  S
O261        C269   1.274       .  A
O261       Co709   1.902   1_545  S
O262        C270   1.259       .  A
O262       Co282   1.998       .  S
O263        C271   1.295       .  A
O263       Co283   2.066       .  S
O264        C272   1.271       .  A
O265        C271   1.268   1_655  A
O265      Co1138   1.897       .  S
O266       C1128   1.270       .  A
O267        C270   1.265       .  A
O267       Co712   2.011   1_545  S
O268        C269   1.300       .  A
O268       Co283   2.087       .  S
C269        C407   1.447       .  S
C270        C403   1.442       .  S
C271        C391   1.425       .  S
C272       O1122   1.270       .  A
C272       C1600   1.521       .  S
O273        C286   1.273       .  A
O273      Co1137   2.022       .  S
O274       C1143   1.253       .  A
O274       Co282   2.010       .  S
O275        C288   1.248       .  A
O275       Co711   1.984       .  S
O276        C289   1.261       .  A
O276       Co284   1.979       .  S
O277        C289   1.262       .  A
O277       Co710   1.992       .  S
O278        C288   1.243       .  A
O278       Co281   1.963       .  S
O279        C286   1.261       .  A
O279       Co284   1.971       .  S
O280        C287   1.261       .  A
O280       Co283   2.051       .  S
Co281       O689   1.902       .  S
Co281      O1129   2.022   1_455  S
Co281       O713   1.954   1_455  S
Co282      O1121   1.897       .  S
Co282       O705   1.992       .  S
Co282      O1141   1.936       .  S
Co283       O703   1.984       .  S
Co283       O285   2.266   1_455  S
Co284       O695   2.011       .  S
Co284      O1569   2.101       .  S
O285       Co709   1.954   1_645  S
O285      Co1138   1.936       .  S
O285      Co1568   2.101   1_545  S
C286        C405   1.441       .  S
C287       O1130   1.253   1_455  A
C287       C1585   1.520   1_455  S
C288        C395   1.426       .  S
C289        C393   1.425       .  S
O290        C298   1.274       .  A
O290       Co738   1.900   1_545  S
O291        C299   1.260       .  A
O291       Co311   2.002       .  S
O292        C300   1.296       .  A
O292       Co312   2.070       .  S
O293        C301   1.272       .  A
O293       Co313   2.049       .  S
O294        C300   1.267   1_655  A
O294      Co1167   1.892       .  S
O295       C1157   1.268   1_455  A
O295       Co310   2.014       .  S
O296        C299   1.264       .  A
O296       Co741   2.008   1_545  S
O297        C298   1.301       .  A
O297       Co312   2.084       .  S
C298        C402   1.446       .  S
C299        C397   1.442       .  S
C300        C385   1.424       .  S
C301       O1151   1.268       .  A
C301       C1571   1.520       .  S
O302        C315   1.274       .  A
O302      Co1166   2.025       .  S
O303       C1172   1.255       .  A
O303       Co311   2.012       .  S
O304        C317   1.248       .  A
O304       Co740   1.985       .  S
O305        C318   1.259       .  A
O305       Co313   1.975       .  S
O306        C318   1.261       .  A
O306       Co739   1.990       .  S
O307        C317   1.242       .  A
O307       Co310   1.959       .  S
O308        C315   1.260       .  A
O308       Co313   1.968       .  S
O309        C316   1.261       .  A
O309       Co312   2.049       .  S
Co310       O718   1.900       .  S
Co310      O1158   2.025   1_455  S
Co310       O742   1.950   1_455  S
Co311      O1150   1.892       .  S
Co311       O734   1.990       .  S
Co311      O1170   1.936       .  S
Co312       O732   1.985       .  S
Co312       O314   2.268   1_455  S
Co313       O724   2.008       .  S
Co313      O1598   2.100       .  S
O314       Co738   1.950   1_645  S
O314      Co1167   1.936       .  S
O314      Co1597   2.100   1_545  S
C315        C400   1.442       .  S
C316       O1159   1.255   1_455  A
C316       C1556   1.521       .  S
C317        C389   1.425       .  S
C318        C387   1.422       .  S
C319        C321   1.541       .  S
C319        C323   1.528       .  S
C319        C322   1.539       .  S
C319        C369   1.498       .  S
C320        C324   1.536       .  S
C320        C326   1.534       .  S
C320        C325   1.524       .  S
C320        C376   1.501       .  S
C321        C329   1.382       .  A
C321        C324   1.393       .  A
C322        C333   1.380       .  A
C322        C325   1.389       .  A
C323        C337   1.377       .  A
C323        C326   1.388       .  A
C324        C327   1.374       .  A
C325        C331   1.372       .  A
C326        C334   1.374       .  A
C327        H340   1.082       .  S
C327        N328   1.350       .  A
N328        C329   1.352       .  A
N328        C396   1.396       .  S
C329        H330   1.082       .  S
C331        H341   1.083       .  S
C331        N332   1.351       .  A
N332        C333   1.353       .  A
N332        C392   1.395       .  S
C333        H339   1.081       .  S
C334        H336   1.082       .  S
C334        N335   1.352       .  A
N335        C337   1.353       .  A
N335        C394   1.395       .  S
C337        H338   1.082       .  S
C342        C344   1.541       .  S
C342        C346   1.536       .  S
C342        C345   1.529       .  S
C342        C379   1.499       .  S
C343        C347   1.536       .  S
C343        C349   1.523       .  S
C343        C348   1.532       .  S
C343        C366   1.500       .  S
C344        C352   1.381       .  A
C344        C347   1.394       .  A
C345        C356   1.375       .  A
C345        C348   1.389       .  A
C346        C360   1.380       .  A
C346        C349   1.388       .  A
C347        C350   1.374       .  A
C348        C354   1.375       .  A
C349        C357   1.369       .  A
C350        H363   1.082       .  S
C350        N351   1.351       .  A
N351        C352   1.351       .  A
N351        C390   1.395       .  S
C352        H353   1.082       .  S
C354        H364   1.082       .  S
C354        N355   1.350       .  A
N355        C356   1.353       .  A
N355        C386   1.394       .  S
C356        H362   1.082       .  S
C357        H359   1.083       .  S
C357        N358   1.350       .  A
N358        C360   1.352       .  A
N358        C388   1.393       .  S
C360        H361   1.082       .  S
C365        C366   1.403       .  A
C365        C370   1.386       .  A
C365        H371   1.080       .  S
C366        C367   1.402       .  A
C367        C368   1.386       .  A
C367        H372   1.080       .  S
C368        C369   1.403       .  A
C368        H373   1.081       .  S
C369        C370   1.401       .  A
C370        H374   1.080       .  S
C375        C376   1.403       .  A
C375        H381   1.081       .  S
C376        C377   1.403       .  A
C377        H382   1.081       .  S
C378        C379   1.402       .  A
C378        H383   1.081       .  S
C379        C380   1.403       .  A
C380        H384   1.081       .  S
C385        C386   1.199       .  T
C387        C388   1.198       .  T
C389        C390   1.200       .  T
C391        C392   1.200       .  T
C393        C394   1.200       .  T
C395        C396   1.201       .  T
C397        C398   1.210       .  T
C399        C400   1.211       .  T
C401        C402   1.212       .  T
C403        C404   1.211       .  T
C405        C406   1.210       .  T
C407        C408   1.213       .  T
C409        C410   1.402       .  A
C409        C414   1.387       .  A
C409        H415   1.080       .  S
C410        C411   1.404       .  A
C411        C412   1.387       .  A
C411        H416   1.081       .  S
C412        C413   1.401       .  A
C412        H417   1.081       .  S
C413        C414   1.404       .  A
C414        H418   1.081       .  S
C419        C420   1.402       .  A
C419        C424   1.387       .  A
C419        H425   1.081       .  S
C420        C421   1.403       .  A
C421        C422   1.387       .  A
C421        H426   1.081       .  S
C422        C423   1.403       .  A
C422        H427   1.081       .  S
C423        C424   1.403       .  A
C424        H428   1.081       .  S
C429        C431   1.530       .  S
C429        C433   1.543       .  S
C429        C432   1.544       .  S
C429        C624   1.501       .  S
C430        C434   1.532       .  S
C430        C436   1.549       .  S
C430        C435   1.546       .  S
C430        C634   1.500       .  S
C431        C439   1.379       .  A
C431        C648   1.382       .  A
C432        C443   1.383       .  A
C432        C649   1.392       .  A
C433        C447   1.383       .  A
C433        C650   1.390       .  A
C434        C645   1.382   1_554  A
C434        C437   1.383       .  A
C435        C646   1.392   1_554  A
C435        C441   1.385       .  A
C436        C647   1.390   1_554  A
C436        C444   1.390       .  A
C437        H450   1.083       .  S
C437        N652   1.357   1_554  A
N438        C651   1.357       .  A
N438        C439   1.356       .  A
N438        C618   1.407       .  S
C439        H440   1.083       .  S
C441        H451   1.082       .  S
C441        N442   1.354   1_554  A
N442        C657   1.355       .  A
N442        C834   1.407       .  S
C443        H449   1.082       .  S
C443        N656   1.355       .  A
C444        H446   1.082       .  S
C444        N659   1.357   1_554  A
N445        C658   1.357       .  A
N445        C447   1.354       .  A
N445        C622   1.410       .  S
C447        H448   1.082       .  S
C452        C454   1.528       .  S
C452        C456   1.544       .  S
C452        C455   1.544       .  S
C452        C637   1.501       .  S
C453        C457   1.533       .  S
C453        C459   1.548       .  S
C453        C458   1.545       .  S
C453        C627   1.500       .  S
C454        C462   1.377       .  A
C454        C457   1.382       .  A
C455        C466   1.384       .  A
C455        C458   1.391       .  A
C456        C470   1.383       .  A
C456        C459   1.391       .  A
C457        C460   1.384       .  A
C458        C464   1.385       .  A
C459        C467   1.389       .  A
C460        H473   1.083       .  S
C460        N461   1.358       .  A
N461        C462   1.355       .  A
N461        C612   1.407       .  S
C462        H463   1.083       .  S
C464        H474   1.082       .  S
C464        N465   1.354       .  A
N465        C466   1.355       .  A
N465        C613   1.408       .  S
C466        H472   1.082       .  S
C467        H469   1.082       .  S
C467        N468   1.356       .  A
N468        C470   1.354       .  A
N468        C615   1.410       .  S
C470        H471   1.082       .  S
O475        C483   1.274       .  A
O476        C484   1.259       .  A
O476       Co496   1.998       .  S
O477        C485   1.295       .  A
O477       Co497   2.066       .  S
O478        C486   1.271   1_565  A
O478       Co712   2.046   1_554  S
O479        C485   1.268   1_655  A
O479      Co1352   1.897       .  S
O480       C1342   1.270       .  A
O480       Co709   2.018   1_544  S
O481        C484   1.265       .  A
O482        C483   1.300       .  A
O482       Co497   2.087       .  S
C483        C621   1.447       .  S
C484        C617   1.442       .  S
C485        C605   1.425       .  S
C486       O1336   1.270       .  A
C486        C958   1.521       .  S
O487        C500   1.273       .  A
O487      Co1351   2.022       .  S
O488       C1357   1.253       .  A
O488       Co496   2.010       .  S
O489        C502   1.248   1_545  A
O490        C503   1.261       .  A
O490       Co498   1.979       .  S
O491        C503   1.262   1_545  A
O492        C502   1.243       .  A
O492       Co495   1.963       .  S
O493        C500   1.261       .  A
O493       Co498   1.971       .  S
O494        C501   1.261       .  A
O494       Co497   2.051       .  S
Co495       O694   2.018   1_565  S
Co495      O1343   2.022   1_455  S
Co496      O1335   1.897       .  S
Co496      O1355   1.936       .  S
Co497       O499   2.266   1_455  S
Co498       O692   2.046       .  S
Co498       O927   2.101   1_565  S
O499      Co1352   1.936       .  S
O499       Co926   2.101       .  S
C500        C619   1.441       .  S
C501       O1344   1.253   1_455  A
C501        C943   1.520   1_455  S
C502        C609   1.426       .  S
C503        C607   1.425       .  S
O504        C512   1.274       .  A
O505        C513   1.260       .  A
O505       Co525   2.002       .  S
O506        C514   1.296       .  A
O506       Co526   2.070       .  S
O507        C515   1.272   1_565  A
O507       Co527   2.049       .  S
O508        C514   1.267   1_655  A
O508      Co1381   1.892       .  S
O509       C1371   1.268   1_455  A
O509       Co524   2.014   1_545  S
O510        C513   1.264       .  A
O511        C512   1.301       .  A
O511       Co526   2.084       .  S
C512        C616   1.446       .  S
C513        C611   1.442       .  S
C514        C599   1.424       .  S
C515       O1365   1.268       .  A
C515        C929   1.520       .  S
O516        C529   1.274       .  A
O516      Co1380   2.025       .  S
O517       C1386   1.255       .  A
O517       Co525   2.012       .  S
O518        C531   1.248   1_545  A
O519        C532   1.259       .  A
O519       Co527   1.975       .  S
O520        C532   1.261   1_545  A
O521        C531   1.242       .  A
O521       Co524   1.959       .  S
O522        C529   1.260       .  A
O522       Co527   1.968       .  S
O523        C530   1.261       .  A
O523       Co526   2.049       .  S
Co524      O1372   2.025   1_455  S
Co525      O1364   1.892       .  S
Co525      O1384   1.936       .  S
Co526       O528   2.268   1_455  S
Co527       O956   2.100   1_565  S
O528      Co1381   1.936       .  S
O528       Co955   2.100       .  S
C529        C614   1.442       .  S
C530       O1373   1.255   1_455  A
C530        C914   1.521       .  S
C531        C603   1.425       .  S
C532        C601   1.422       .  S
C533        C535   1.541       .  S
C533        C537   1.528       .  S
C533        C536   1.539       .  S
C533        C583   1.498       .  S
C534        C538   1.536       .  S
C534        C540   1.534       .  S
C534        C539   1.524       .  S
C534        C590   1.501       .  S
C535        C543   1.382       .  A
C535        C538   1.393       .  A
C536        C547   1.380       .  A
C536        C539   1.389       .  A
C537        C551   1.377       .  A
C537        C540   1.388       .  A
C538        C541   1.374       .  A
C539        C545   1.372       .  A
C540        C548   1.374       .  A
C541        H554   1.082       .  S
C541        N542   1.350       .  A
N542        C543   1.352       .  A
N542        C610   1.396       .  S
C543        H544   1.082       .  S
C545        H555   1.083       .  S
C545        N546   1.351       .  A
N546        C547   1.353       .  A
N546        C606   1.395       .  S
C547        H553   1.081       .  S
C548        H550   1.082       .  S
C548        N549   1.352       .  A
N549        C551   1.353       .  A
N549        C608   1.395       .  S
C551        H552   1.082       .  S
C556        C558   1.541       .  S
C556        C560   1.536       .  S
C556        C559   1.529       .  S
C556        C593   1.499       .  S
C557        C561   1.536       .  S
C557        C563   1.523       .  S
C557        C562   1.532       .  S
C557        C580   1.500       .  S
C558        C566   1.381       .  A
C558        C561   1.394       .  A
C559        C570   1.375       .  A
C559        C562   1.389       .  A
C560        C574   1.380       .  A
C560        C563   1.388       .  A
C561        C564   1.374       .  A
C562        C568   1.375       .  A
C563        C571   1.369       .  A
C564        H577   1.082       .  S
C564        N565   1.351       .  A
N565        C566   1.351       .  A
N565        C604   1.395       .  S
C566        H567   1.082       .  S
C568        H578   1.082       .  S
C568        N569   1.350       .  A
N569        C570   1.353       .  A
N569        C600   1.394       .  S
C570        H576   1.082       .  S
C571        H573   1.083       .  S
C571        N572   1.350       .  A
N572        C574   1.352       .  A
N572        C602   1.393       .  S
C574        H575   1.082       .  S
C579        C580   1.403       .  A
C579        C584   1.386       .  A
C579        H585   1.080       .  S
C580        C581   1.402       .  A
C581        C582   1.386       .  A
C581        H586   1.080       .  S
C582        C583   1.403       .  A
C582        H587   1.081       .  S
C583        C584   1.401       .  A
C584        H588   1.080       .  S
C589        C590   1.403       .  A
C589        C808   1.387       .  A
C589        H595   1.081       .  S
C590        C591   1.403       .  A
C591        C806   1.386       .  A
C591        H596   1.081       .  S
C592        C805   1.386   1_554  A
C592        C593   1.402       .  A
C592        H597   1.081       .  S
C593        C594   1.403       .  A
C594        C803   1.387   1_554  A
C594        H598   1.081       .  S
C599        C600   1.199       .  T
C601        C602   1.198       .  T
C603        C604   1.200       .  T
C605        C606   1.200       .  T
C607        C608   1.200       .  T
C609        C610   1.201       .  T
C611        C612   1.210       .  T
C613        C614   1.211       .  T
C615        C616   1.212       .  T
C617        C618   1.211       .  T
C619        C620   1.210       .  T
C620        N656   1.407       .  S
C621        C622   1.213       .  T
C623        C624   1.402       .  A
C623        C628   1.387       .  A
C623        H629   1.081       .  S
C624        C625   1.404       .  A
C625        C626   1.387       .  A
C625        H630   1.081       .  S
C626        C627   1.401       .  A
C626        H631   1.081       .  S
C627        C628   1.404       .  A
C628        H632   1.081       .  S
C633        C634   1.402       .  A
C633        C638   1.387       .  A
C633        H639   1.081       .  S
C634        C635   1.403       .  A
C635        C636   1.387       .  A
C635        H640   1.081       .  S
C636        C637   1.403       .  A
C636        H641   1.080       .  S
C637        C638   1.403       .  A
C638        H642   1.081       .  S
C643        C645   1.530       .  S
C643        C647   1.543       .  S
C643        C646   1.544       .  S
C643        C838   1.501       .  S
C644        C648   1.532       .  S
C644        C650   1.549       .  S
C644        C649   1.546       .  S
C644        C848   1.500       .  S
C645        C653   1.379       .  A
C646        C657   1.383       .  A
C647        C661   1.383       .  A
C648        C651   1.383       .  A
C649        C655   1.385       .  A
C650        C658   1.390       .  A
C651        H664   1.083       .  S
N652        C653   1.356       .  A
N652        C832   1.407       .  S
C653        H654   1.083       .  S
C655        H665   1.082       .  S
C655        N656   1.354       .  A
C657        H663   1.082       .  S
C658        H660   1.082       .  S
N659        C661   1.354       .  A
N659        C836   1.410       .  S
C661        H662   1.082       .  S
C666        C668   1.528       .  S
C666        C670   1.544       .  S
C666        C669   1.544       .  S
C666        C851   1.501       .  S
C667        C671   1.533       .  S
C667        C673   1.548       .  S
C667        C672   1.545       .  S
C667        C841   1.500       .  S
C668        C676   1.377       .  A
C668        C671   1.382       .  A
C669        C680   1.384       .  A
C669        C672   1.391       .  A
C670        C684   1.383       .  A
C670        C673   1.391       .  A
C671        C674   1.384       .  A
C672        C678   1.385       .  A
C673        C681   1.389       .  A
C674        H687   1.083       .  S
C674        N675   1.358       .  A
N675        C676   1.355       .  A
N675        C826   1.407       .  S
C676        H677   1.083       .  S
C678        H688   1.082       .  S
C678        N679   1.354       .  A
N679        C680   1.355       .  A
N679        C827   1.408       .  S
C680        H686   1.082       .  S
C681        H683   1.082       .  S
C681        N682   1.356       .  A
N682        C684   1.354       .  A
N682        C829   1.410       .  S
C684        H685   1.082       .  S
O689        C697   1.274       .  A
O690        C698   1.259       .  A
O690       Co710   1.998       .  S
O691        C699   1.295       .  A
O691       Co711   2.066       .  S
O692        C700   1.271   1_565  A
O693        C699   1.268   1_655  A
O693      Co1566   1.897       .  S
O694       C1556   1.270       .  A
O695        C698   1.265       .  A
O696        C697   1.300       .  A
O696       Co711   2.087       .  S
C697        C835   1.447       .  S
C698        C831   1.442       .  S
C699        C819   1.425       .  S
C700       O1550   1.270       .  A
C700       C1172   1.521       .  S
O701        C714   1.273       .  A
O701      Co1565   2.022       .  S
O702       C1571   1.253       .  A
O702       Co710   2.010       .  S
O703        C716   1.248   1_545  A
O704        C717   1.261       .  A
O704       Co712   1.979       .  S
O705        C717   1.262   1_545  A
O706        C716   1.243       .  A
O706       Co709   1.963       .  S
O707        C714   1.261       .  A
O707       Co712   1.971       .  S
O708        C715   1.261       .  A
O708       Co711   2.051       .  S
Co709      O1557   2.022   1_455  S
Co710      O1549   1.897       .  S
Co710      O1569   1.936       .  S
Co711       O713   2.266   1_455  S
Co712      O1141   2.101   1_565  S
O713      Co1566   1.936       .  S
O713      Co1140   2.101       .  S
C714        C833   1.441       .  S
C715       O1558   1.253   1_455  A
C715       C1157   1.520   1_455  S
C716        C823   1.426       .  S
C717        C821   1.425       .  S
O718        C726   1.274       .  A
O719        C727   1.260       .  A
O719       Co739   2.002       .  S
O720        C728   1.296       .  A
O720       Co740   2.070       .  S
O721        C729   1.272   1_565  A
O721       Co741   2.049       .  S
O722        C728   1.267   1_655  A
O722      Co1595   1.892       .  S
O723       C1585   1.268   1_455  A
O723       Co738   2.014   1_545  S
O724        C727   1.264       .  A
O725        C726   1.301       .  A
O725       Co740   2.084       .  S
C726        C830   1.446       .  S
C727        C825   1.442       .  S
C728        C813   1.424       .  S
C729       O1579   1.268       .  A
C729       C1143   1.520       .  S
O730        C743   1.274       .  A
O730      Co1594   2.025       .  S
O731       C1600   1.255       .  A
O731       Co739   2.012       .  S
O732        C745   1.248   1_545  A
O733        C746   1.259       .  A
O733       Co741   1.975       .  S
O734        C746   1.261   1_545  A
O735        C745   1.242       .  A
O735       Co738   1.959       .  S
O736        C743   1.260       .  A
O736       Co741   1.968       .  S
O737        C744   1.261       .  A
O737       Co740   2.049       .  S
Co738      O1586   2.025   1_455  S
Co739      O1578   1.892       .  S
Co739      O1598   1.936       .  S
Co740       O742   2.268   1_455  S
Co741      O1170   2.100   1_565  S
O742      Co1595   1.936       .  S
O742      Co1169   2.100       .  S
C743        C828   1.442       .  S
C744       O1587   1.255   1_455  A
C744       C1128   1.521       .  S
C745        C817   1.425       .  S
C746        C815   1.422       .  S
C747        C749   1.541       .  S
C747        C751   1.528       .  S
C747        C750   1.539       .  S
C747        C797   1.498       .  S
C748        C752   1.536       .  S
C748        C754   1.534       .  S
C748        C753   1.524       .  S
C748        C804   1.501       .  S
C749        C757   1.382       .  A
C749        C752   1.393       .  A
C750        C761   1.380       .  A
C750        C753   1.389       .  A
C751        C765   1.377       .  A
C751        C754   1.388       .  A
C752        C755   1.374       .  A
C753        C759   1.372       .  A
C754        C762   1.374       .  A
C755        H768   1.082       .  S
C755        N756   1.350       .  A
N756        C757   1.352       .  A
N756        C824   1.396       .  S
C757        H758   1.082       .  S
C759        H769   1.083       .  S
C759        N760   1.351       .  A
N760        C761   1.353       .  A
N760        C820   1.395       .  S
C761        H767   1.081       .  S
C762        H764   1.082       .  S
C762        N763   1.352       .  A
N763        C765   1.353       .  A
N763        C822   1.395       .  S
C765        H766   1.082       .  S
C770        C772   1.541       .  S
C770        C774   1.536       .  S
C770        C773   1.529       .  S
C770        C807   1.499       .  S
C771        C775   1.536       .  S
C771        C777   1.523       .  S
C771        C776   1.532       .  S
C771        C794   1.500       .  S
C772        C780   1.381       .  A
C772        C775   1.394       .  A
C773        C784   1.375       .  A
C773        C776   1.389       .  A
C774        C788   1.380       .  A
C774        C777   1.388       .  A
C775        C778   1.374       .  A
C776        C782   1.375       .  A
C777        C785   1.369       .  A
C778        H791   1.082       .  S
C778        N779   1.351       .  A
N779        C780   1.351       .  A
N779        C818   1.395       .  S
C780        H781   1.082       .  S
C782        H792   1.082       .  S
C782        N783   1.350       .  A
N783        C784   1.353       .  A
N783        C814   1.394       .  S
C784        H790   1.082       .  S
C785        H787   1.083       .  S
C785        N786   1.350       .  A
N786        C788   1.352       .  A
N786        C816   1.393       .  S
C788        H789   1.082       .  S
C793        C794   1.403       .  A
C793        C798   1.386       .  A
C793        H799   1.080       .  S
C794        C795   1.402       .  A
C795        C796   1.386       .  A
C795        H800   1.080       .  S
C796        C797   1.403       .  A
C796        H801   1.081       .  S
C797        C798   1.401       .  A
C798        H802   1.080       .  S
C803        C804   1.403       .  A
C803        H809   1.081       .  S
C804        C805   1.403       .  A
C805        H810   1.081       .  S
C806        C807   1.402       .  A
C806        H811   1.081       .  S
C807        C808   1.403       .  A
C808        H812   1.081       .  S
C813        C814   1.199       .  T
C815        C816   1.198       .  T
C817        C818   1.200       .  T
C819        C820   1.200       .  T
C821        C822   1.200       .  T
C823        C824   1.201       .  T
C825        C826   1.210       .  T
C827        C828   1.211       .  T
C829        C830   1.212       .  T
C831        C832   1.211       .  T
C833        C834   1.210       .  T
C835        C836   1.213       .  T
C837        C838   1.402       .  A
C837        C842   1.387       .  A
C837        H843   1.081       .  S
C838        C839   1.404       .  A
C839        C840   1.387       .  A
C839        H844   1.081       .  S
C840        C841   1.401       .  A
C840        H845   1.081       .  S
C841        C842   1.404       .  A
C842        H846   1.081       .  S
C847        C848   1.402       .  A
C847        C852   1.387       .  A
C847        H853   1.081       .  S
C848        C849   1.403       .  A
C849        C850   1.387       .  A
C849        H854   1.081       .  S
C850        C851   1.403       .  A
C850        H855   1.081       .  S
C851        C852   1.403       .  A
C852        H856   1.081       .  S
C857        C859   1.530       .  S
C857        C861   1.543       .  S
C857        C860   1.544       .  S
C857       C1052   1.501       .  S
C858        C862   1.532       .  S
C858        C864   1.549       .  S
C858        C863   1.546       .  S
C858       C1062   1.500       .  S
C859        C867   1.379       .  A
C859       C1076   1.382       .  A
C860        C871   1.383       .  A
C860       C1077   1.392       .  A
C861        C875   1.383       .  A
C861       C1078   1.390       .  A
C862       C1073   1.382   1_554  A
C862        C865   1.383       .  A
C863       C1074   1.392   1_554  A
C863        C869   1.385       .  A
C864       C1075   1.390   1_554  A
C864        C872   1.390       .  A
C865        H878   1.083       .  S
C865       N1080   1.357   1_554  A
N866       C1079   1.357       .  A
N866        C867   1.356       .  A
N866       C1046   1.407       .  S
C867        H868   1.083       .  S
C869        H879   1.082       .  S
C869        N870   1.354   1_554  A
N870       C1085   1.355       .  A
N870       C1262   1.407       .  S
C871        H877   1.082       .  S
C871       N1084   1.355       .  A
C872        H874   1.082       .  S
C872       N1087   1.357   1_554  A
N873       C1086   1.357       .  A
N873        C875   1.354       .  A
N873       C1050   1.410       .  S
C875        H876   1.082       .  S
C880        C882   1.528       .  S
C880        C884   1.544       .  S
C880        C883   1.544       .  S
C880       C1065   1.501       .  S
C881        C885   1.533       .  S
C881        C887   1.548       .  S
C881        C886   1.545       .  S
C881       C1055   1.500       .  S
C882        C890   1.377       .  A
C882        C885   1.382       .  A
C883        C894   1.384       .  A
C883        C886   1.391       .  A
C884        C898   1.383       .  A
C884        C887   1.391       .  A
C885        C888   1.384       .  A
C886        C892   1.385       .  A
C887        C895   1.389       .  A
C888        H901   1.083       .  S
C888        N889   1.358       .  A
N889        C890   1.355       .  A
N889       C1040   1.407       .  S
C890        H891   1.083       .  S
C892        H902   1.082       .  S
C892        N893   1.354       .  A
N893        C894   1.355       .  A
N893       C1041   1.408       .  S
C894        H900   1.082       .  S
C895        H897   1.082       .  S
C895        N896   1.356       .  A
N896        C898   1.354       .  A
N896       C1043   1.410       .  S
C898        H899   1.082       .  S
O903        C911   1.274       .  A
O903      Co1351   1.902   1_545  S
O904        C912   1.259       .  A
O904       Co924   1.998       .  S
O905        C913   1.295       .  A
O905       Co925   2.066       .  S
O906        C914   1.271   1_655  A
O906      Co1140   2.046   1_554  S
O907        C913   1.268       .  A
O908      Co1137   2.018   1_554  S
O909        C912   1.265       .  A
O909      Co1354   2.011   1_545  S
O910        C911   1.300       .  A
O910       Co925   2.087       .  S
C911       C1049   1.447       .  S
C912       C1045   1.442       .  S
C913       C1033   1.425       .  S
O915        C928   1.273       .  A
O916       Co924   2.010       .  S
O917        C930   1.248       .  A
O917      Co1353   1.984       .  S
O918        C931   1.261       .  A
O918       Co926   1.979       .  S
O919        C931   1.262       .  A
O919      Co1352   1.992       .  S
O920        C930   1.243       .  A
O920       Co923   1.963       .  S
O921        C928   1.261       .  A
O921       Co926   1.971       .  S
O922        C929   1.261       .  A
O922       Co925   2.051       .  S
Co923      O1331   1.902       .  S
Co923      O1122   2.018       .  S
Co923      O1355   1.954       .  S
Co924      O1347   1.992       .  S
Co925      O1345   1.984       .  S
Co925       O927   2.266       .  S
Co926      O1120   2.046       .  S
Co926      O1337   2.011       .  S
O927      Co1351   1.954   1_545  S
C928       C1047   1.441       .  S
C930       C1037   1.426       .  S
C931       C1035   1.425       .  S
O932        C940   1.274       .  A
O932      Co1380   1.900   1_545  S
O933        C941   1.260       .  A
O933       Co953   2.002       .  S
O934        C942   1.296       .  A
O934       Co954   2.070       .  S
O935        C943   1.272       .  A
O935       Co955   2.049       .  S
O936        C942   1.267       .  A
O937       Co952   2.014       .  S
O938        C941   1.264       .  A
O938      Co1383   2.008   1_545  S
O939        C940   1.301       .  A
O939       Co954   2.084       .  S
C940       C1044   1.446       .  S
C941       C1039   1.442       .  S
C942       C1027   1.424       .  S
O944        C957   1.274       .  A
O945       Co953   2.012       .  S
O946        C959   1.248       .  A
O946      Co1382   1.985       .  S
O947        C960   1.259       .  A
O947       Co955   1.975       .  S
O948        C960   1.261       .  A
O948      Co1381   1.990       .  S
O949        C959   1.242       .  A
O949       Co952   1.959       .  S
O950        C957   1.260       .  A
O950       Co955   1.968       .  S
O951        C958   1.261       .  A
O951       Co954   2.049       .  S
Co952      O1360   1.900       .  S
Co952      O1384   1.950       .  S
Co953      O1376   1.990       .  S
Co954      O1374   1.985       .  S
Co954       O956   2.268       .  S
Co955      O1366   2.008       .  S
O956      Co1380   1.950   1_545  S
C957       C1042   1.442       .  S
C959       C1031   1.425       .  S
C960       C1029   1.422       .  S
C961        C963   1.541       .  S
C961        C965   1.528       .  S
C961        C964   1.539       .  S
C961       C1011   1.498       .  S
C962        C966   1.536       .  S
C962        C968   1.534       .  S
C962        C967   1.524       .  S
C962       C1018   1.501       .  S
C963        C971   1.382       .  A
C963        C966   1.393       .  A
C964        C975   1.380       .  A
C964        C967   1.389       .  A
C965        C979   1.377       .  A
C965        C968   1.388       .  A
C966        C969   1.374       .  A
C967        C973   1.372       .  A
C968        C976   1.374       .  A
C969        H982   1.082       .  S
C969        N970   1.350       .  A
N970        C971   1.352       .  A
N970       C1038   1.396       .  S
C971        H972   1.082       .  S
C973        H983   1.083       .  S
C973        N974   1.351       .  A
N974        C975   1.353       .  A
N974       C1034   1.395       .  S
C975        H981   1.081       .  S
C976        H978   1.082       .  S
C976        N977   1.352       .  A
N977        C979   1.353       .  A
N977       C1036   1.395       .  S
C979        H980   1.082       .  S
C984        C986   1.541       .  S
C984        C988   1.536       .  S
C984        C987   1.529       .  S
C984       C1021   1.499       .  S
C985        C989   1.536       .  S
C985        C991   1.523       .  S
C985        C990   1.532       .  S
C985       C1008   1.500       .  S
C986        C994   1.381       .  A
C986        C989   1.394       .  A
C987        C998   1.375       .  A
C987        C990   1.389       .  A
C988       C1002   1.380       .  A
C988        C991   1.388       .  A
C989        C992   1.374       .  A
C990        C996   1.375       .  A
C991        C999   1.369       .  A
C992       H1005   1.082       .  S
C992        N993   1.351       .  A
N993        C994   1.351       .  A
N993       C1032   1.395       .  S
C994        H995   1.082       .  S
C996       H1006   1.082       .  S
C996        N997   1.350       .  A
N997        C998   1.353       .  A
N997       C1028   1.394       .  S
C998       H1004   1.082       .  S
C999       H1001   1.083       .  S
C999       N1000   1.350       .  A
N1000      C1002   1.352       .  A
N1000      C1030   1.393       .  S
C1002      H1003   1.082       .  S
C1007      C1008   1.403       .  A
C1007      C1012   1.386       .  A
C1007      H1013   1.080       .  S
C1008      C1009   1.402       .  A
C1009      C1010   1.386       .  A
C1009      H1014   1.080       .  S
C1010      C1011   1.403       .  A
C1010      H1015   1.081       .  S
C1011      C1012   1.401       .  A
C1012      H1016   1.080       .  S
C1017      C1018   1.403       .  A
C1017      C1236   1.387       .  A
C1017      H1023   1.081       .  S
C1018      C1019   1.403       .  A
C1019      C1234   1.386       .  A
C1019      H1024   1.081       .  S
C1020      C1233   1.386   1_554  A
C1020      C1021   1.402       .  A
C1020      H1025   1.081       .  S
C1021      C1022   1.403       .  A
C1022      C1231   1.387   1_554  A
C1022      H1026   1.081       .  S
C1027      C1028   1.199       .  T
C1029      C1030   1.198       .  T
C1031      C1032   1.200       .  T
C1033      C1034   1.200       .  T
C1035      C1036   1.200       .  T
C1037      C1038   1.201       .  T
C1039      C1040   1.210       .  T
C1041      C1042   1.211       .  T
C1043      C1044   1.212       .  T
C1045      C1046   1.211       .  T
C1047      C1048   1.210       .  T
C1048      N1084   1.407       .  S
C1049      C1050   1.213       .  T
C1051      C1052   1.402       .  A
C1051      C1056   1.387       .  A
C1051      H1057   1.080       .  S
C1052      C1053   1.404       .  A
C1053      C1054   1.387       .  A
C1053      H1058   1.081       .  S
C1054      C1055   1.401       .  A
C1054      H1059   1.081       .  S
C1055      C1056   1.404       .  A
C1056      H1060   1.081       .  S
C1061      C1062   1.402       .  A
C1061      C1066   1.387       .  A
C1061      H1067   1.081       .  S
C1062      C1063   1.403       .  A
C1063      C1064   1.387       .  A
C1063      H1068   1.081       .  S
C1064      C1065   1.403       .  A
C1064      H1069   1.080       .  S
C1065      C1066   1.403       .  A
C1066      H1070   1.081       .  S
C1071      C1073   1.530       .  S
C1071      C1075   1.543       .  S
C1071      C1074   1.544       .  S
C1071      C1266   1.501       .  S
C1072      C1076   1.532       .  S
C1072      C1078   1.549       .  S
C1072      C1077   1.546       .  S
C1072      C1276   1.500       .  S
C1073      C1081   1.379       .  A
C1074      C1085   1.383       .  A
C1075      C1089   1.383       .  A
C1076      C1079   1.383       .  A
C1077      C1083   1.385       .  A
C1078      C1086   1.390       .  A
C1079      H1092   1.083       .  S
N1080      C1081   1.356       .  A
N1080      C1260   1.407       .  S
C1081      H1082   1.083       .  S
C1083      H1093   1.082       .  S
C1083      N1084   1.354       .  A
C1085      H1091   1.082       .  S
C1086      H1088   1.082       .  S
N1087      C1089   1.354       .  A
N1087      C1264   1.410       .  S
C1089      H1090   1.082       .  S
C1094      C1096   1.528       .  S
C1094      C1098   1.544       .  S
C1094      C1097   1.544       .  S
C1094      C1279   1.501       .  S
C1095      C1099   1.533       .  S
C1095      C1101   1.548       .  S
C1095      C1100   1.545       .  S
C1095      C1269   1.500       .  S
C1096      C1104   1.377       .  A
C1096      C1099   1.382       .  A
C1097      C1108   1.384       .  A
C1097      C1100   1.391       .  A
C1098      C1112   1.383       .  A
C1098      C1101   1.391       .  A
C1099      C1102   1.384       .  A
C1100      C1106   1.385       .  A
C1101      C1109   1.389       .  A
C1102      H1115   1.083       .  S
C1102      N1103   1.358       .  A
N1103      C1104   1.355       .  A
N1103      C1254   1.407       .  S
C1104      H1105   1.083       .  S
C1106      H1116   1.082       .  S
C1106      N1107   1.354       .  A
N1107      C1108   1.355       .  A
N1107      C1255   1.408       .  S
C1108      H1114   1.082       .  S
C1109      H1111   1.082       .  S
C1109      N1110   1.356       .  A
N1110      C1112   1.354       .  A
N1110      C1257   1.410       .  S
C1112      H1113   1.082       .  S
O1117      C1125   1.274       .  A
O1117     Co1565   1.902   1_545  S
O1118      C1126   1.259       .  A
O1118     Co1138   1.998       .  S
O1119      C1127   1.295       .  A
O1119     Co1139   2.066       .  S
O1120      C1128   1.271   1_655  A
O1121      C1127   1.268       .  A
O1123      C1126   1.265       .  A
O1123     Co1568   2.011   1_545  S
O1124      C1125   1.300       .  A
O1124     Co1139   2.087       .  S
C1125      C1263   1.447       .  S
C1126      C1259   1.442       .  S
C1127      C1247   1.425       .  S
O1129      C1142   1.273       .  A
O1130     Co1138   2.010       .  S
O1131      C1144   1.248       .  A
O1131     Co1567   1.984       .  S
O1132      C1145   1.261       .  A
O1132     Co1140   1.979       .  S
O1133      C1145   1.262       .  A
O1133     Co1566   1.992       .  S
O1134      C1144   1.243       .  A
O1134     Co1137   1.963       .  S
O1135      C1142   1.261       .  A
O1135     Co1140   1.971       .  S
O1136      C1143   1.261       .  A
O1136     Co1139   2.051       .  S
Co1137     O1545   1.902       .  S
Co1137     O1569   1.954       .  S
Co1138     O1561   1.992       .  S
Co1139     O1559   1.984       .  S
Co1139     O1141   2.266       .  S
Co1140     O1551   2.011       .  S
O1141     Co1565   1.954   1_545  S
C1142      C1261   1.441       .  S
C1144      C1251   1.426       .  S
C1145      C1249   1.425       .  S
O1146      C1154   1.274       .  A
O1146     Co1594   1.900   1_545  S
O1147      C1155   1.260       .  A
O1147     Co1167   2.002       .  S
O1148      C1156   1.296       .  A
O1148     Co1168   2.070       .  S
O1149      C1157   1.272       .  A
O1149     Co1169   2.049       .  S
O1150      C1156   1.267       .  A
O1151     Co1166   2.014       .  S
O1152      C1155   1.264       .  A
O1152     Co1597   2.008   1_545  S
O1153      C1154   1.301       .  A
O1153     Co1168   2.084       .  S
C1154      C1258   1.446       .  S
C1155      C1253   1.442       .  S
C1156      C1241   1.424       .  S
O1158      C1171   1.274       .  A
O1159     Co1167   2.012       .  S
O1160      C1173   1.248       .  A
O1160     Co1596   1.985       .  S
O1161      C1174   1.259       .  A
O1161     Co1169   1.975       .  S
O1162      C1174   1.261       .  A
O1162     Co1595   1.990       .  S
O1163      C1173   1.242       .  A
O1163     Co1166   1.959       .  S
O1164      C1171   1.260       .  A
O1164     Co1169   1.968       .  S
O1165      C1172   1.261       .  A
O1165     Co1168   2.049       .  S
Co1166     O1574   1.900       .  S
Co1166     O1598   1.950       .  S
Co1167     O1590   1.990       .  S
Co1168     O1588   1.985       .  S
Co1168     O1170   2.268       .  S
Co1169     O1580   2.008       .  S
O1170     Co1594   1.950   1_545  S
C1171      C1256   1.442       .  S
C1173      C1245   1.425       .  S
C1174      C1243   1.422       .  S
C1175      C1177   1.541       .  S
C1175      C1179   1.528       .  S
C1175      C1178   1.539       .  S
C1175      C1225   1.498       .  S
C1176      C1180   1.536       .  S
C1176      C1182   1.534       .  S
C1176      C1181   1.524       .  S
C1176      C1232   1.501       .  S
C1177      C1185   1.382       .  A
C1177      C1180   1.393       .  A
C1178      C1189   1.380       .  A
C1178      C1181   1.389       .  A
C1179      C1193   1.377       .  A
C1179      C1182   1.388       .  A
C1180      C1183   1.374       .  A
C1181      C1187   1.372       .  A
C1182      C1190   1.374       .  A
C1183      H1196   1.082       .  S
C1183      N1184   1.350       .  A
N1184      C1185   1.352       .  A
N1184      C1252   1.396       .  S
C1185      H1186   1.082       .  S
C1187      H1197   1.083       .  S
C1187      N1188   1.351       .  A
N1188      C1189   1.353       .  A
N1188      C1248   1.395       .  S
C1189      H1195   1.081       .  S
C1190      H1192   1.082       .  S
C1190      N1191   1.352       .  A
N1191      C1193   1.353       .  A
N1191      C1250   1.395       .  S
C1193      H1194   1.082       .  S
C1198      C1200   1.541       .  S
C1198      C1202   1.536       .  S
C1198      C1201   1.529       .  S
C1198      C1235   1.499       .  S
C1199      C1203   1.536       .  S
C1199      C1205   1.523       .  S
C1199      C1204   1.532       .  S
C1199      C1222   1.500       .  S
C1200      C1208   1.381       .  A
C1200      C1203   1.394       .  A
C1201      C1212   1.375       .  A
C1201      C1204   1.389       .  A
C1202      C1216   1.380       .  A
C1202      C1205   1.388       .  A
C1203      C1206   1.374       .  A
C1204      C1210   1.375       .  A
C1205      C1213   1.369       .  A
C1206      H1219   1.082       .  S
C1206      N1207   1.351       .  A
N1207      C1208   1.351       .  A
N1207      C1246   1.395       .  S
C1208      H1209   1.082       .  S
C1210      H1220   1.082       .  S
C1210      N1211   1.350       .  A
N1211      C1212   1.353       .  A
N1211      C1242   1.394       .  S
C1212      H1218   1.082       .  S
C1213      H1215   1.083       .  S
C1213      N1214   1.350       .  A
N1214      C1216   1.352       .  A
N1214      C1244   1.393       .  S
C1216      H1217   1.082       .  S
C1221      C1222   1.403       .  A
C1221      C1226   1.386       .  A
C1221      H1227   1.080       .  S
C1222      C1223   1.402       .  A
C1223      C1224   1.386       .  A
C1223      H1228   1.080       .  S
C1224      C1225   1.403       .  A
C1224      H1229   1.081       .  S
C1225      C1226   1.401       .  A
C1226      H1230   1.080       .  S
C1231      C1232   1.403       .  A
C1231      H1237   1.081       .  S
C1232      C1233   1.403       .  A
C1233      H1238   1.081       .  S
C1234      C1235   1.402       .  A
C1234      H1239   1.081       .  S
C1235      C1236   1.403       .  A
C1236      H1240   1.081       .  S
C1241      C1242   1.199       .  T
C1243      C1244   1.198       .  T
C1245      C1246   1.200       .  T
C1247      C1248   1.200       .  T
C1249      C1250   1.200       .  T
C1251      C1252   1.201       .  T
C1253      C1254   1.210       .  T
C1255      C1256   1.211       .  T
C1257      C1258   1.212       .  T
C1259      C1260   1.211       .  T
C1261      C1262   1.210       .  T
C1263      C1264   1.213       .  T
C1265      C1266   1.402       .  A
C1265      C1270   1.387       .  A
C1265      H1271   1.081       .  S
C1266      C1267   1.404       .  A
C1267      C1268   1.387       .  A
C1267      H1272   1.081       .  S
C1268      C1269   1.401       .  A
C1268      H1273   1.081       .  S
C1269      C1270   1.404       .  A
C1270      H1274   1.081       .  S
C1275      C1276   1.402       .  A
C1275      C1280   1.387       .  A
C1275      H1281   1.081       .  S
C1276      C1277   1.403       .  A
C1277      C1278   1.387       .  A
C1277      H1282   1.081       .  S
C1278      C1279   1.403       .  A
C1278      H1283   1.081       .  S
C1279      C1280   1.403       .  A
C1280      H1284   1.081       .  S
C1285      C1287   1.530       .  S
C1285      C1289   1.543       .  S
C1285      C1288   1.544       .  S
C1285      C1480   1.501       .  S
C1286      C1290   1.532       .  S
C1286      C1292   1.549       .  S
C1286      C1291   1.546       .  S
C1286      C1490   1.500       .  S
C1287      C1295   1.379       .  A
C1287      C1504   1.382       .  A
C1288      C1299   1.383       .  A
C1288      C1505   1.392       .  A
C1289      C1303   1.383       .  A
C1289      C1506   1.390       .  A
C1290      C1501   1.382   1_554  A
C1290      C1293   1.383       .  A
C1291      C1502   1.392   1_554  A
C1291      C1297   1.385       .  A
C1292      C1503   1.390   1_554  A
C1292      C1300   1.390       .  A
C1293      H1306   1.083       .  S
C1293      N1508   1.357   1_554  A
N1294      C1507   1.357       .  A
N1294      C1295   1.356       .  A
N1294      C1474   1.407       .  S
C1295      H1296   1.083       .  S
C1297      H1307   1.082       .  S
C1297      N1298   1.354   1_554  A
N1298      C1513   1.355       .  A
N1298      C1690   1.407       .  S
C1299      H1305   1.082       .  S
C1299      N1512   1.355       .  A
C1300      H1302   1.082       .  S
C1300      N1515   1.357   1_554  A
N1301      C1514   1.357       .  A
N1301      C1303   1.354       .  A
N1301      C1478   1.410       .  S
C1303      H1304   1.082       .  S
C1308      C1310   1.528       .  S
C1308      C1312   1.544       .  S
C1308      C1311   1.544       .  S
C1308      C1493   1.501       .  S
C1309      C1313   1.533       .  S
C1309      C1315   1.548       .  S
C1309      C1314   1.545       .  S
C1309      C1483   1.500       .  S
C1310      C1318   1.377       .  A
C1310      C1313   1.382       .  A
C1311      C1322   1.384       .  A
C1311      C1314   1.391       .  A
C1312      C1326   1.383       .  A
C1312      C1315   1.391       .  A
C1313      C1316   1.384       .  A
C1314      C1320   1.385       .  A
C1315      C1323   1.389       .  A
C1316      H1329   1.083       .  S
C1316      N1317   1.358       .  A
N1317      C1318   1.355       .  A
N1317      C1468   1.407       .  S
C1318      H1319   1.083       .  S
C1320      H1330   1.082       .  S
C1320      N1321   1.354       .  A
N1321      C1322   1.355       .  A
N1321      C1469   1.408       .  S
C1322      H1328   1.082       .  S
C1323      H1325   1.082       .  S
C1323      N1324   1.356       .  A
N1324      C1326   1.354       .  A
N1324      C1471   1.410       .  S
C1326      H1327   1.082       .  S
O1331      C1339   1.274       .  A
O1332      C1340   1.259       .  A
O1332     Co1352   1.998       .  S
O1333      C1341   1.295       .  A
O1333     Co1353   2.066       .  S
O1334      C1342   1.271   1_665  A
O1334     Co1568   2.046   1_554  S
O1335      C1341   1.268       .  A
O1336     Co1565   2.018   1_544  S
O1337      C1340   1.265       .  A
O1338      C1339   1.300       .  A
O1338     Co1353   2.087       .  S
C1339      C1477   1.447       .  S
C1340      C1473   1.442       .  S
C1341      C1461   1.425       .  S
O1343      C1356   1.273       .  A
O1344     Co1352   2.010       .  S
O1345      C1358   1.248   1_545  A
O1346      C1359   1.261       .  A
O1346     Co1354   1.979       .  S
O1347      C1359   1.262   1_545  A
O1348      C1358   1.243       .  A
O1348     Co1351   1.963       .  S
O1349      C1356   1.261       .  A
O1349     Co1354   1.971       .  S
O1350      C1357   1.261       .  A
O1350     Co1353   2.051       .  S
Co1351     O1550   2.018   1_565  S
Co1353     O1355   2.266       .  S
Co1354     O1548   2.046       .  S
C1356      C1475   1.441       .  S
C1358      C1465   1.426       .  S
C1359      C1463   1.425       .  S
O1360      C1368   1.274       .  A
O1361      C1369   1.260       .  A
O1361     Co1381   2.002       .  S
O1362      C1370   1.296       .  A
O1362     Co1382   2.070       .  S
O1363      C1371   1.272   1_565  A
O1363     Co1383   2.049       .  S
O1364      C1370   1.267       .  A
O1365     Co1380   2.014   1_545  S
O1366      C1369   1.264       .  A
O1367      C1368   1.301       .  A
O1367     Co1382   2.084       .  S
C1368      C1472   1.446       .  S
C1369      C1467   1.442       .  S
C1370      C1455   1.424       .  S
O1372      C1385   1.274       .  A
O1373     Co1381   2.012       .  S
O1374      C1387   1.248   1_545  A
O1375      C1388   1.259       .  A
O1375     Co1383   1.975       .  S
O1376      C1388   1.261   1_545  A
O1377      C1387   1.242       .  A
O1377     Co1380   1.959       .  S
O1378      C1385   1.260       .  A
O1378     Co1383   1.968       .  S
O1379      C1386   1.261       .  A
O1379     Co1382   2.049       .  S
Co1382     O1384   2.268       .  S
C1385      C1470   1.442       .  S
C1387      C1459   1.425       .  S
C1388      C1457   1.422       .  S
C1389      C1391   1.541       .  S
C1389      C1393   1.528       .  S
C1389      C1392   1.539       .  S
C1389      C1439   1.498       .  S
C1390      C1394   1.536       .  S
C1390      C1396   1.534       .  S
C1390      C1395   1.524       .  S
C1390      C1446   1.501       .  S
C1391      C1399   1.382       .  A
C1391      C1394   1.393       .  A
C1392      C1403   1.380       .  A
C1392      C1395   1.389       .  A
C1393      C1407   1.377       .  A
C1393      C1396   1.388       .  A
C1394      C1397   1.374       .  A
C1395      C1401   1.372       .  A
C1396      C1404   1.374       .  A
C1397      H1410   1.082       .  S
C1397      N1398   1.350       .  A
N1398      C1399   1.352       .  A
N1398      C1466   1.396       .  S
C1399      H1400   1.082       .  S
C1401      H1411   1.083       .  S
C1401      N1402   1.351       .  A
N1402      C1403   1.353       .  A
N1402      C1462   1.395       .  S
C1403      H1409   1.081       .  S
C1404      H1406   1.082       .  S
C1404      N1405   1.352       .  A
N1405      C1407   1.353       .  A
N1405      C1464   1.395       .  S
C1407      H1408   1.082       .  S
C1412      C1414   1.541       .  S
C1412      C1416   1.536       .  S
C1412      C1415   1.529       .  S
C1412      C1449   1.499       .  S
C1413      C1417   1.536       .  S
C1413      C1419   1.523       .  S
C1413      C1418   1.532       .  S
C1413      C1436   1.500       .  S
C1414      C1422   1.381       .  A
C1414      C1417   1.394       .  A
C1415      C1426   1.375       .  A
C1415      C1418   1.389       .  A
C1416      C1430   1.380       .  A
C1416      C1419   1.388       .  A
C1417      C1420   1.374       .  A
C1418      C1424   1.375       .  A
C1419      C1427   1.369       .  A
C1420      H1433   1.082       .  S
C1420      N1421   1.351       .  A
N1421      C1422   1.351       .  A
N1421      C1460   1.395       .  S
C1422      H1423   1.082       .  S
C1424      H1434   1.082       .  S
C1424      N1425   1.350       .  A
N1425      C1426   1.353       .  A
N1425      C1456   1.394       .  S
C1426      H1432   1.082       .  S
C1427      H1429   1.083       .  S
C1427      N1428   1.350       .  A
N1428      C1430   1.352       .  A
N1428      C1458   1.393       .  S
C1430      H1431   1.082       .  S
C1435      C1436   1.403       .  A
C1435      C1440   1.386       .  A
C1435      H1441   1.080       .  S
C1436      C1437   1.402       .  A
C1437      C1438   1.386       .  A
C1437      H1442   1.080       .  S
C1438      C1439   1.403       .  A
C1438      H1443   1.081       .  S
C1439      C1440   1.401       .  A
C1440      H1444   1.080       .  S
C1445      C1446   1.403       .  A
C1445      C1664   1.387       .  A
C1445      H1451   1.081       .  S
C1446      C1447   1.403       .  A
C1447      C1662   1.386       .  A
C1447      H1452   1.081       .  S
C1448      C1661   1.386   1_554  A
C1448      C1449   1.402       .  A
C1448      H1453   1.081       .  S
C1449      C1450   1.403       .  A
C1450      C1659   1.387   1_554  A
C1450      H1454   1.081       .  S
C1455      C1456   1.199       .  T
C1457      C1458   1.198       .  T
C1459      C1460   1.200       .  T
C1461      C1462   1.200       .  T
C1463      C1464   1.200       .  T
C1465      C1466   1.201       .  T
C1467      C1468   1.210       .  T
C1469      C1470   1.211       .  T
C1471      C1472   1.212       .  T
C1473      C1474   1.211       .  T
C1475      C1476   1.210       .  T
C1476      N1512   1.407       .  S
C1477      C1478   1.213       .  T
C1479      C1480   1.402       .  A
C1479      C1484   1.387       .  A
C1479      H1485   1.081       .  S
C1480      C1481   1.404       .  A
C1481      C1482   1.387       .  A
C1481      H1486   1.081       .  S
C1482      C1483   1.401       .  A
C1482      H1487   1.081       .  S
C1483      C1484   1.404       .  A
C1484      H1488   1.081       .  S
C1489      C1490   1.402       .  A
C1489      C1494   1.387       .  A
C1489      H1495   1.081       .  S
C1490      C1491   1.403       .  A
C1491      C1492   1.387       .  A
C1491      H1496   1.081       .  S
C1492      C1493   1.403       .  A
C1492      H1497   1.080       .  S
C1493      C1494   1.403       .  A
C1494      H1498   1.081       .  S
C1499      C1501   1.530       .  S
C1499      C1503   1.543       .  S
C1499      C1502   1.544       .  S
C1499      C1694   1.501       .  S
C1500      C1504   1.532       .  S
C1500      C1506   1.549       .  S
C1500      C1505   1.546       .  S
C1500      C1704   1.500       .  S
C1501      C1509   1.379       .  A
C1502      C1513   1.383       .  A
C1503      C1517   1.383       .  A
C1504      C1507   1.383       .  A
C1505      C1511   1.385       .  A
C1506      C1514   1.390       .  A
C1507      H1520   1.083       .  S
N1508      C1509   1.356       .  A
N1508      C1688   1.407       .  S
C1509      H1510   1.083       .  S
C1511      H1521   1.082       .  S
C1511      N1512   1.354       .  A
C1513      H1519   1.082       .  S
C1514      H1516   1.082       .  S
N1515      C1517   1.354       .  A
N1515      C1692   1.410       .  S
C1517      H1518   1.082       .  S
C1522      C1524   1.528       .  S
C1522      C1526   1.544       .  S
C1522      C1525   1.544       .  S
C1522      C1707   1.501       .  S
C1523      C1527   1.533       .  S
C1523      C1529   1.548       .  S
C1523      C1528   1.545       .  S
C1523      C1697   1.500       .  S
C1524      C1532   1.377       .  A
C1524      C1527   1.382       .  A
C1525      C1536   1.384       .  A
C1525      C1528   1.391       .  A
C1526      C1540   1.383       .  A
C1526      C1529   1.391       .  A
C1527      C1530   1.384       .  A
C1528      C1534   1.385       .  A
C1529      C1537   1.389       .  A
C1530      H1543   1.083       .  S
C1530      N1531   1.358       .  A
N1531      C1532   1.355       .  A
N1531      C1682   1.407       .  S
C1532      H1533   1.083       .  S
C1534      H1544   1.082       .  S
C1534      N1535   1.354       .  A
N1535      C1536   1.355       .  A
N1535      C1683   1.408       .  S
C1536      H1542   1.082       .  S
C1537      H1539   1.082       .  S
C1537      N1538   1.356       .  A
N1538      C1540   1.354       .  A
N1538      C1685   1.410       .  S
C1540      H1541   1.082       .  S
O1545      C1553   1.274       .  A
O1546      C1554   1.259       .  A
O1546     Co1566   1.998       .  S
O1547      C1555   1.295       .  A
O1547     Co1567   2.066       .  S
O1548      C1556   1.271   1_665  A
O1549      C1555   1.268       .  A
O1551      C1554   1.265       .  A
O1552      C1553   1.300       .  A
O1552     Co1567   2.087       .  S
C1553      C1691   1.447       .  S
C1554      C1687   1.442       .  S
C1555      C1675   1.425       .  S
O1557      C1570   1.273       .  A
O1558     Co1566   2.010       .  S
O1559      C1572   1.248   1_545  A
O1560      C1573   1.261       .  A
O1560     Co1568   1.979       .  S
O1561      C1573   1.262   1_545  A
O1562      C1572   1.243       .  A
O1562     Co1565   1.963       .  S
O1563      C1570   1.261       .  A
O1563     Co1568   1.971       .  S
O1564      C1571   1.261       .  A
O1564     Co1567   2.051       .  S
Co1567     O1569   2.266       .  S
C1570      C1689   1.441       .  S
C1572      C1679   1.426       .  S
C1573      C1677   1.425       .  S
O1574      C1582   1.274       .  A
O1575      C1583   1.260       .  A
O1575     Co1595   2.002       .  S
O1576      C1584   1.296       .  A
O1576     Co1596   2.070       .  S
O1577      C1585   1.272   1_565  A
O1577     Co1597   2.049       .  S
O1578      C1584   1.267       .  A
O1579     Co1594   2.014   1_545  S
O1580      C1583   1.264       .  A
O1581      C1582   1.301       .  A
O1581     Co1596   2.084       .  S
C1582      C1686   1.446       .  S
C1583      C1681   1.442       .  S
C1584      C1669   1.424       .  S
O1586      C1599   1.274       .  A
O1587     Co1595   2.012       .  S
O1588      C1601   1.248   1_545  A
O1589      C1602   1.259       .  A
O1589     Co1597   1.975       .  S
O1590      C1602   1.261   1_545  A
O1591      C1601   1.242       .  A
O1591     Co1594   1.959       .  S
O1592      C1599   1.260       .  A
O1592     Co1597   1.968       .  S
O1593      C1600   1.261       .  A
O1593     Co1596   2.049       .  S
Co1596     O1598   2.268       .  S
C1599      C1684   1.442       .  S
C1601      C1673   1.425       .  S
C1602      C1671   1.422       .  S
C1603      C1605   1.541       .  S
C1603      C1607   1.528       .  S
C1603      C1606   1.539       .  S
C1603      C1653   1.498       .  S
C1604      C1608   1.536       .  S
C1604      C1610   1.534       .  S
C1604      C1609   1.524       .  S
C1604      C1660   1.501       .  S
C1605      C1613   1.382       .  A
C1605      C1608   1.393       .  A
C1606      C1617   1.380       .  A
C1606      C1609   1.389       .  A
C1607      C1621   1.377       .  A
C1607      C1610   1.388       .  A
C1608      C1611   1.374       .  A
C1609      C1615   1.372       .  A
C1610      C1618   1.374       .  A
C1611      H1624   1.082       .  S
C1611      N1612   1.350       .  A
N1612      C1613   1.352       .  A
N1612      C1680   1.396       .  S
C1613      H1614   1.082       .  S
C1615      H1625   1.083       .  S
C1615      N1616   1.351       .  A
N1616      C1617   1.353       .  A
N1616      C1676   1.395       .  S
C1617      H1623   1.081       .  S
C1618      H1620   1.082       .  S
C1618      N1619   1.352       .  A
N1619      C1621   1.353       .  A
N1619      C1678   1.395       .  S
C1621      H1622   1.082       .  S
C1626      C1628   1.541       .  S
C1626      C1630   1.536       .  S
C1626      C1629   1.529       .  S
C1626      C1663   1.499       .  S
C1627      C1631   1.536       .  S
C1627      C1633   1.523       .  S
C1627      C1632   1.532       .  S
C1627      C1650   1.500       .  S
C1628      C1636   1.381       .  A
C1628      C1631   1.394       .  A
C1629      C1640   1.375       .  A
C1629      C1632   1.389       .  A
C1630      C1644   1.380       .  A
C1630      C1633   1.388       .  A
C1631      C1634   1.374       .  A
C1632      C1638   1.375       .  A
C1633      C1641   1.369       .  A
C1634      H1647   1.082       .  S
C1634      N1635   1.351       .  A
N1635      C1636   1.351       .  A
N1635      C1674   1.395       .  S
C1636      H1637   1.082       .  S
C1638      H1648   1.082       .  S
C1638      N1639   1.350       .  A
N1639      C1640   1.353       .  A
N1639      C1670   1.394       .  S
C1640      H1646   1.082       .  S
C1641      H1643   1.083       .  S
C1641      N1642   1.350       .  A
N1642      C1644   1.352       .  A
N1642      C1672   1.393       .  S
C1644      H1645   1.082       .  S
C1649      C1650   1.403       .  A
C1649      C1654   1.386       .  A
C1649      H1655   1.080       .  S
C1650      C1651   1.402       .  A
C1651      C1652   1.386       .  A
C1651      H1656   1.080       .  S
C1652      C1653   1.403       .  A
C1652      H1657   1.081       .  S
C1653      C1654   1.401       .  A
C1654      H1658   1.080       .  S
C1659      C1660   1.403       .  A
C1659      H1665   1.081       .  S
C1660      C1661   1.403       .  A
C1661      H1666   1.081       .  S
C1662      C1663   1.402       .  A
C1662      H1667   1.081       .  S
C1663      C1664   1.403       .  A
C1664      H1668   1.081       .  S
C1669      C1670   1.199       .  T
C1671      C1672   1.198       .  T
C1673      C1674   1.200       .  T
C1675      C1676   1.200       .  T
C1677      C1678   1.200       .  T
C1679      C1680   1.201       .  T
C1681      C1682   1.210       .  T
C1683      C1684   1.211       .  T
C1685      C1686   1.212       .  T
C1687      C1688   1.211       .  T
C1689      C1690   1.210       .  T
C1691      C1692   1.213       .  T
C1693      C1694   1.402       .  A
C1693      C1698   1.387       .  A
C1693      H1699   1.081       .  S
C1694      C1695   1.404       .  A
C1695      C1696   1.387       .  A
C1695      H1700   1.081       .  S
C1696      C1697   1.401       .  A
C1696      H1701   1.081       .  S
C1697      C1698   1.404       .  A
C1698      H1702   1.081       .  S
C1703      C1704   1.402       .  A
C1703      C1708   1.387       .  A
C1703      H1709   1.081       .  S
C1704      C1705   1.403       .  A
C1705      C1706   1.387       .  A
C1705      H1710   1.081       .  S
C1706      C1707   1.403       .  A
C1706      H1711   1.081       .  S
C1707      C1708   1.403       .  A
C1708      H1712   1.081       .  S
