geometry optimzed in LAMMPS
_audit_creation_date              2020-11-30 
_audit_creation_method            'lammps2cif' 
_symmetry_space_group_name_H-M    'P1' 
_symmetry_Int_Tables_number       1 
_symmetry_cell_setting            triclinic 
loop_ 
_symmetry_equiv_pos_as_xyz 
  x,y,z 
_cell_length_a                    39.56702847 
_cell_length_b                    40.66997117322152 
_cell_length_c                    102.01167716530674 
_cell_angle_alpha                 91.48422586403552 
_cell_angle_beta                  90.01899908304762 
_cell_angle_gamma                 119.76166287184924 
loop_ 
_atom_site_label 
_atom_site_type_symbol 
_atom_site_fract_x 
_atom_site_fract_y 
_atom_site_fract_z 
_atom_site_charge 
C1          C  0.64199654  0.09617491  0.72460986     0.80600
N2          N  0.67601872  0.10347240  0.71879013    -0.77700
C3          C  0.67559363  0.07938355  0.70913773     0.83100
N4          N  0.64150500  0.04831929  0.70554246    -0.77600
C5          C  0.60775015  0.04098694  0.71130759     0.83200
N6          N  0.60814452  0.06503513  0.72078429    -0.79300
C7          C  0.96643543  0.17095031  0.64168068     0.80600
N8          N  0.93645504  0.16195123  0.65007777    -0.77700
C9          C  0.94104265  0.18556645  0.66051763     0.83100
N10         N  0.97557649  0.21790571  0.66248671    -0.77600
C11         C  0.00563114  0.22701233  0.65423885     0.83200
N12         N  0.00084300  0.20354615  0.64385927    -0.79300
C13         C  0.55735405  0.84844388  0.80879616     0.80600
N14         N  0.54984815  0.87726785  0.81149768    -0.77700
C15         C  0.56470714  0.89909551  0.82265688     0.83100
N16         N  0.58728219  0.89224904  0.83087389    -0.77600
C17         C  0.59549195  0.86436345  0.82814787     0.83200
N18         N  0.58039136  0.84234835  0.81712238    -0.79300
C19         C  0.77541505  0.75113379  0.89195433     0.80600
N20         N  0.76514170  0.71592235  0.88700343    -0.77700
C21         C  0.75128461  0.70574293  0.87447916     0.83100
N22         N  0.74798948  0.73085059  0.86695252    -0.77600
C23         C  0.75792047  0.76584120  0.87173340     0.83200
N24         N  0.77135777  0.77601133  0.88430290    -0.79300
C25         C  0.86625574  0.54125621  0.49942369     0.80600
N26         N  0.83954629  0.51947870  0.49007752    -0.77700
C27         C  0.82987995  0.48289993  0.48798100     0.83100
N28         N  0.84703792  0.46790964  0.49534987    -0.77600
C29         C  0.87386696  0.48917088  0.50473870     0.83200
N30         N  0.88383995  0.52622207  0.50677781    -0.79300
C31         C  0.09024129  0.39280451  0.56554096     0.80600
N32         N  0.07337263  0.41249005  0.56108152    -0.77700
C33         C  0.04723553  0.39868819  0.55103550     0.83100
N34         N  0.03801922  0.36476881  0.54522692    -0.77600
C35         C  0.05503702  0.34485447  0.54939690     0.83200
N36         N  0.08106908  0.35886451  0.55965275    -0.79300
C37         C  0.63744536  0.47932159  0.97675837     0.80600
N38         N  0.66684962  0.51497800  0.97935337    -0.77700
C39         C  0.67400842  0.52970478  0.99177470     0.83100
N40         N  0.65161207  0.50840522  0.00171702    -0.77600
C41         C  0.62234670  0.47241295  0.99915872     0.83200
N42         N  0.61535168  0.45806925  0.98669549    -0.79300
C43         C  0.34169241  0.35608547  0.07160797     0.80600
N44         N  0.38020402  0.37359120  0.06901266    -0.77700
C45         C  0.39403654  0.36031502  0.05940949     0.83100
N46         N  0.36901419  0.32907069  0.05215082    -0.77600
C47         C  0.33021191  0.31147304  0.05450429     0.83200
N48         N  0.31655688  0.32515062  0.06424954    -0.79300
C49         C  0.00610315  0.74488056  0.39643591     0.80600
N50         N  0.97509211  0.70920320  0.39716280    -0.77700
C51         C  0.96823204  0.68268353  0.38761670     0.83100
N52         N  0.99299441  0.69187571  0.37740360    -0.77600
C53         C  0.02413094  0.72719470  0.37655092     0.83200
N54         N  0.03050868  0.75390757  0.38605676    -0.79300
C55         C  0.31321292  0.82032310  0.30631343     0.80600
N56         N  0.27844388  0.81154005  0.31192702    -0.77700
C57         C  0.27751077  0.83460889  0.32175190     0.83100
N58         N  0.31099288  0.86579681  0.32579989    -0.77600
C59         C  0.34546060  0.87431819  0.32033673     0.83200
N60         N  0.34632012  0.85156110  0.31061469    -0.79300
C61         C  0.20860228  0.14700328  0.14675485     0.80600
N62         N  0.22457585  0.12652643  0.15130642    -0.77700
C63         C  0.24982914  0.13959511  0.16163874     0.83100
N64         N  0.25933930  0.17357343  0.16742381    -0.77600
C65         C  0.24342127  0.19421900  0.16313288     0.83200
N66         N  0.21787904  0.18084262  0.15276352    -0.79300
C67         C  0.43114822  0.04062402  0.23909503     0.80600
N68         N  0.42945504  0.00844904  0.23433144    -0.77700
C69         C  0.41062705  0.99203682  0.22282660     0.83100
N70         N  0.39329477  0.00816716  0.21597171    -0.77600
C71         C  0.39491522  0.04055392  0.22074903     0.83200
N72         N  0.41380691  0.05649490  0.23226790    -0.79300
C73         C  0.12095656  0.63869789  0.81365671     0.80600
N74         N  0.08533681  0.60675912  0.81407762    -0.77700
C75         C  0.06084252  0.60207733  0.82411653     0.83100
N76         N  0.07187232  0.62981851  0.83351576    -0.77600
C77         C  0.10694437  0.66180920  0.83313078     0.83200
N78         N  0.13173323  0.66608117  0.82324722    -0.79300
C79         C  0.19644905  0.95286603  0.90004355     0.80600
N80         N  0.18806528  0.92040031  0.89318714    -0.77700
C81         C  0.20892599  0.92220773  0.88230590     0.83100
N82         N  0.23801695  0.95619877  0.87846403    -0.77600
C83         C  0.24636149  0.98847646  0.88524754     0.83200
N84         N  0.22556138  0.98660814  0.89600538    -0.79300
C85         C  0.78304648  0.73217088  0.63934323     0.80600
N86         N  0.79557020  0.71670398  0.64830782    -0.77700
C87         C  0.77547469  0.70223470  0.65937728     0.83100
N88         N  0.74195250  0.70309839  0.66155514    -0.77600
C89         C  0.72886813  0.71852591  0.65250620     0.83200
N90         N  0.74963496  0.73312593  0.64144283    -0.79300
C91         C  0.87276084  0.53227154  0.73933752     0.80600
N92         N  0.85272657  0.54636087  0.73309042    -0.77700
C93         C  0.86900204  0.57022399  0.72305375     0.83100
N94         N  0.90572790  0.57986013  0.71915425    -0.77600
C95         C  0.92574512  0.56559582  0.72550031     0.83200
N96         N  0.90915534  0.54214443  0.73557037    -0.79300
C97         C  0.44047817  0.29655182  0.48375242     0.80600
N98         N  0.46071991  0.33307404  0.48826259    -0.77700
C99         C  0.44998095  0.34431719  0.49933865     0.83100
N100        N  0.41828614  0.31876506  0.50593713    -0.77600
C101        C  0.39780047  0.28208448  0.50154720     0.83200
N102        N  0.40901008  0.27109894  0.49042699    -0.79300
C103        C  0.52124110  0.64272903  0.56079108     0.80600
N104        N  0.51062031  0.60797480  0.55556178    -0.77700
C105        C  0.53228565  0.60331810  0.54623238     0.83100
N106        N  0.56543940  0.63395833  0.54209872    -0.77600
C107        C  0.57627607  0.66907775  0.54733890     0.83200
N108        N  0.55418174  0.67316694  0.55670684    -0.79300
C109        C  0.42341213  0.04763132  0.96545299     0.80600
N110        N  0.44016836  0.03071048  0.97197367    -0.77700
C111        C  0.42467007  0.01222264  0.98315279     0.83100
N112        N  0.39152724  0.01023699  0.98788529    -0.77600
C113        C  0.37415984  0.02687129  0.98135512     0.83200
N114        N  0.39042216  0.04573949  0.97019274    -0.79300
C115        C  0.55821246  0.85367885  0.05197704     0.80600
N116        N  0.54453857  0.87220283  0.04459198    -0.77700
C117        C  0.51030150  0.87058698  0.04771810     0.83100
N118        N  0.49012243  0.85068160  0.05813742    -0.77600
C119        C  0.50342394  0.83240955  0.06557264     0.83200
N120        N  0.53754769  0.83385685  0.06248250    -0.79300
C121        C  0.17507999  0.14468977  0.39536057     0.80600
N122        N  0.20989842  0.14865560  0.39194408    -0.77700
C123        C  0.23142449  0.17296520  0.38257615     0.83100
N124        N  0.21796479  0.19375602  0.37648171    -0.77600
C125        C  0.18271498  0.18961164  0.37983306     0.83200
N126        N  0.16167949  0.16527581  0.38931411    -0.79300
C127        C  0.10031146  0.39009532  0.30720536     0.80600
N128        N  0.06825919  0.38860866  0.31254900    -0.77700
C129        C  0.05287029  0.36931812  0.32365014     0.83100
N130        N  0.06975458  0.35113068  0.32945189    -0.77600
C131        C  0.10196172  0.35245152  0.32411317     0.83200
N132        N  0.11701137  0.37193266  0.31301758    -0.79300
C133        C  0.86798860  0.28524000  0.23813289     0.80600
N134        N  0.84634479  0.25438352  0.23020924    -0.77700
C135        C  0.85761607  0.25283346  0.21774482     0.83100
N136        N  0.89089314  0.28251826  0.21318591    -0.77600
C137        C  0.91248686  0.31359199  0.22110528     0.83200
N138        N  0.90082361  0.31468283  0.23351220    -0.79300
C139        C  0.75330739  0.95907397  0.14499294     0.80600
N140        N  0.77161404  0.99573044  0.14949357    -0.77700
C141        C  0.75809951  0.00626830  0.16010235     0.83100
N142        N  0.72612062  0.97975269  0.16633659    -0.77600
C143        C  0.70779084  0.94296424  0.16202361     0.83200
N144        N  0.72137999  0.93281844  0.15129655    -0.79300
C145        C  0.53104326  0.60107852  0.31164795     0.80600
N146        N  0.55385293  0.63450707  0.31834355    -0.77700
C147        C  0.57146470  0.63455290  0.32985636     0.83100
N148        N  0.56622626  0.60142085  0.33450256    -0.77600
C149        C  0.54376543  0.56821871  0.32784614     0.83200
N150        N  0.52644495  0.56828043  0.31642014    -0.79300
C151        C  0.77415047  0.92820339  0.39440687     0.80600
N152        N  0.77493091  0.96162913  0.39277081    -0.77700
C153        C  0.75402104  0.96547859  0.38303602     0.83100
N154        N  0.73200369  0.93551482  0.37481026    -0.77600
C155        C  0.73080704  0.90188288  0.37629302     0.83200
N156        N  0.75181910  0.89819322  0.38617243    -0.79300
C157        C  0.49186887  0.32454725  0.72119795     0.80600
N158        N  0.47115592  0.29104484  0.71455113    -0.77700
C159        C  0.44655785  0.28710400  0.70459710     0.83100
N160        N  0.44207112  0.31710978  0.70136496    -0.77600
C161        C  0.46316220  0.35102946  0.70802000     0.83200
N162        N  0.48789649  0.35438406  0.71784215    -0.79300
C163        C  0.23172040  0.97687103  0.64147485     0.80600
N164        N  0.25109070  0.01411216  0.64518187    -0.77700
C165        C  0.27590541  0.02660114  0.65561636     0.83100
N166        N  0.28153754  0.00137043  0.66246918    -0.77600
C167        C  0.26228251  0.96388894  0.65888590     0.83200
N168        N  0.23742332  0.95180500  0.64834319    -0.79300
C169        C  0.66169536  0.09573149  0.48847364     0.80600
N170        N  0.62863665  0.08300162  0.49559726    -0.77700
C171        C  0.62727868  0.07029097  0.50789110     0.83100
N172        N  0.65874548  0.06992867  0.51292990    -0.77600
C173        C  0.69147266  0.08188617  0.50583864     0.83200
N174        N  0.69290788  0.09484926  0.49359964    -0.79300
C175        C  0.34326964  0.83789619  0.56120089     0.80600
N176        N  0.37059777  0.86407737  0.55334794    -0.77700
C177        C  0.35996647  0.87972439  0.54369330     0.83100
N178        N  0.32199003  0.86941002  0.54202455    -0.77600
C179        C  0.29449630  0.84397983  0.55001166     0.83200
N180        N  0.30525483  0.82831591  0.55960211    -0.79300
C181        C  0.68397458  0.49857929  0.23941070     0.80600
N182        N  0.71545345  0.51577711  0.23163775    -0.77700
C183        C  0.71511894  0.53492590  0.22098881     0.83100
N184        N  0.68252678  0.53685521  0.21803763    -0.77600
C185        C  0.65049564  0.51947249  0.22576231     0.83200
N186        N  0.65150481  0.50049124  0.23642931    -0.79300
C187        C  0.97600524  0.70901329  0.13585771     0.80600
N188        N  0.94383859  0.69437892  0.14339296    -0.77700
C189        C  0.94207785  0.67567307  0.15443398     0.83100
N190        N  0.97307867  0.67152531  0.15795999    -0.77600
C191        C  0.00549571  0.68635989  0.15035847     0.83200
N192        N  0.00655364  0.70490689  0.13939940    -0.79300
C193        C  0.86383506  0.28080263  0.97559115     0.80600
N194        N  0.88416195  0.31457830  0.98232774    -0.77700
C195        C  0.90637975  0.31747335  0.99302910     0.83100
N196        N  0.90792526  0.28645671  0.99692511    -0.77600
C197        C  0.88768872  0.25281105  0.99021165     0.83200
N198        N  0.86598576  0.25036594  0.97958156    -0.79300
C199        C  0.08731827  0.59936323  0.06743818     0.80600
N200        N  0.08130226  0.62847184  0.06462087    -0.77700
C201        C  0.05834755  0.62593475  0.05432676     0.83100
N202        N  0.04099144  0.59360067  0.04672832    -0.77600
C203        C  0.04662245  0.56399529  0.04947237     0.83200
N204        N  0.06991135  0.56707573  0.05982410    -0.79300
C205        C  0.28059866  0.39698478  0.80800250     0.80600
N206        N  0.24881803  0.37475221  0.81506277    -0.77700
C207        C  0.25011667  0.35337754  0.82477625     0.83100
N208        N  0.28427287  0.35419838  0.82757692    -0.77600
C209        C  0.31685196  0.37661444  0.82054485     0.83200
N210        N  0.31474592  0.39788894  0.81074207    -0.79300
C211        C  0.97667810  0.16170255  0.90380810     0.80600
N212        N  0.01049481  0.17705628  0.89710755    -0.77700
C213        C  0.01563692  0.19897435  0.88664006     0.83100
N214        N  0.98660334  0.20581960  0.88290096    -0.77600
C215        C  0.95262464  0.19048366  0.88963965     0.83200
N216        N  0.94801083  0.16855793  0.90002675    -0.79300
O217        O  0.63470507  0.22905356  0.81676397    -0.79700
O218        O  0.76430200  0.39027388  0.86442536    -0.81300
O219        O  0.72435888  0.35522521  0.82084951    -0.78300
O220        O  0.74861109  0.28026842  0.84492332    -0.76700
O221        O  0.71880482  0.24274928  0.86239918    -0.78500
O222        O  0.68061627  0.37670662  0.82163696    -0.79400
O223        O  0.77355100  0.36554613  0.84528342    -0.80700
O224        O  0.69999327  0.27095983  0.81870513    -0.81000
Eu225      Eu  0.71095891  0.31069434  0.83852130     2.39200
O226        O  0.70888688  0.30633320  0.86148282    -0.88500
O227        O  0.65077401  0.30037141  0.83046115    -0.92100
C228        C  0.67007960  0.24383028  0.81270293     1.02600
C229        C  0.78570897  0.39025785  0.85486380     1.02400
C230        C  0.70989057  0.37546669  0.81671190     1.02300
C231        C  0.74649520  0.25778274  0.85398646     1.00200
H232        H  0.71562495  0.38085110  0.84467906     0.29900
O233        O  0.69574866  0.35589457  0.84710283    -1.00900
H234        H  0.66899805  0.23120333  0.84075756     0.30000
O235        O  0.66282641  0.24968404  0.84443031    -1.03500
O236        O  0.66247764  0.36588900  0.88787535    -0.80700
O237        O  0.53418990  0.20031545  0.84152327    -0.80200
O238        O  0.66826545  0.41195622  0.84778057    -0.78700
O239        O  0.69996377  0.27249456  0.88773259    -0.82000
O240        O  0.62721487  0.17942696  0.85867587    -0.79900
O241        O  0.59847722  0.31954404  0.81830079    -0.78500
O242        O  0.54623961  0.31078788  0.86126315    -0.80000
O243        O  0.56793753  0.23492968  0.88458753    -0.82000
O244        O  0.57502810  0.34873391  0.84384851    -0.78700
O245        O  0.61043723  0.21199143  0.88463540    -0.81400
O246        O  0.70453351  0.41456377  0.86570442    -0.77100
O247        O  0.57617573  0.25568622  0.81727021    -0.77100
O248        O  0.59330249  0.17697571  0.84011678    -0.76800
O249        O  0.72222838  0.33634228  0.88869200    -0.80300
O250        O  0.59696859  0.32398843  0.88657602    -0.79700
O251        O  0.52418656  0.22535605  0.86047774    -0.78000
Eu252      Eu  0.69466240  0.35206029  0.86995540     2.39800
Eu253      Eu  0.60291163  0.23948163  0.83596157     2.39600
Eu254      Eu  0.63497745  0.34540471  0.83911962     2.38400
Eu255      Eu  0.65948952  0.24569813  0.86755813     2.39900
Eu256      Eu  0.58518687  0.28137232  0.86751255     2.39800
O257        O  0.60028638  0.23627872  0.85886454    -0.92400
O258        O  0.63411583  0.34214053  0.86204264    -0.91300
C259        C  0.62734918  0.35255935  0.89187005     1.02700
C260        C  0.51274004  0.20026591  0.85103101     1.01400
C261        C  0.69227210  0.42976079  0.85744839     1.00800
C262        C  0.71967386  0.30590095  0.89322441     1.02800
C263        C  0.60467269  0.16175185  0.84866753     1.01800
C264        C  0.57982914  0.28638084  0.81261770     1.00600
C265        C  0.54744663  0.33320693  0.85230858     1.00700
C266        C  0.58020210  0.21316154  0.88889953     1.03300
H267        H  0.56143537  0.27826681  0.84099907     0.30700
O268        O  0.58651071  0.28401856  0.84452813    -1.04600
H269        H  0.64384113  0.29079482  0.88552282     0.32700
O270        O  0.64521424  0.29186744  0.87608473    -1.07200
O271        O  0.90981118  0.87261553  0.98745576    -0.79700
O272        O  0.96769129  0.04406025  0.03372445    -0.81300
O273        O  0.86065549  0.93692968  0.01418887    -0.78300
O274        O  0.96339289  0.00410016  0.98997661    -0.76700
O275        O  0.02689092  0.01760110  0.99015834    -0.78500
O276        O  0.84767330  0.89897728  0.03183148    -0.79400
O277        O  0.93092292  0.02069700  0.01490146    -0.80700
O278        O  0.89631738  0.92125332  0.98825652    -0.81000
Eu279      Eu  0.92896287  0.96125371  0.00794385     2.39200
O280        O  0.99199749  0.00203098  0.01637172    -0.88500
O281        O  0.90821939  0.89886663  0.01439148    -0.92100
C282        C  0.89385281  0.89104957  0.98283826     1.02600
C283        C  0.94664942  0.04567757  0.02436509     1.02400
C284        C  0.83785961  0.91535622  0.02310703     1.02300
C285        C  0.99830752  0.02054127  0.98541830     1.00200
H286        H  0.91067460  0.96826406  0.03442615     0.29900
O287        O  0.92802928  0.95989187  0.03103406    -1.00900
H288        H  0.97255521  0.94249966  0.99044339     0.30000
O289        O  0.97231497  0.94189393  0.99989142    -1.03500
O290        O  0.03500137  0.00879607  0.05788267    -0.80700
O291        O  0.97623643  0.83638471  0.01220880    -0.80200
O292        O  0.89856012  0.92805403  0.05736622    -0.78700
O293        O  0.07867801  0.04935387  0.01615910    -0.82000
O294        O  0.04468565  0.95088830  0.98867675    -0.79900
O295        O  0.86629858  0.83142705  0.03009192    -0.78500
O296        O  0.98053569  0.87818180  0.05558940    -0.80000
O297        O  0.08293894  0.94239012  0.03072705    -0.82000
O298        O  0.91686650  0.86415932  0.05565124    -0.78700
O299        O  0.09478272  0.98095252  0.01336360    -0.81400
O300        O  0.94808338  0.98962118  0.05828128    -0.77100
O301        O  0.89299699  0.82061800  0.01171379    -0.77100
O302        O  0.99539866  0.88914954  0.98778147    -0.76800
O303        O  0.05013439  0.05878006  0.03432913    -0.80300
O304        O  0.04967835  0.96098998  0.05675244    -0.79700
O305        O  0.01282809  0.85996547  0.03105496    -0.78000
Eu306      Eu  0.99112849  0.00026881  0.03942094     2.39800
Eu307      Eu  0.95196588  0.87970898  0.00633915     2.39600
Eu308      Eu  0.90775970  0.89778182  0.03751310     2.38400
Eu309      Eu  0.03557032  0.98322223  0.00809979     2.39900
Eu310      Eu  0.01502043  0.91972713  0.03753387     2.39800
O311        O  0.01534014  0.92096869  0.01450365    -0.92400
O312        O  0.97121700  0.93838141  0.04580866    -0.91300
C313        C  0.05249511  0.99139458  0.06211669     1.02700
C314        C  0.99695973  0.83470914  0.02168932     1.01400
C315        C  0.91686399  0.96153628  0.06280629     1.00800
C316        C  0.07734076  0.06996728  0.02580879     1.02800
C317        C  0.02680237  0.91714916  0.98335272     1.01800
C318        C  0.86697226  0.80988403  0.02070778     1.00600
C319        C  0.94578320  0.86148706  0.06022715     1.00700
C320        C  0.10508114  0.96406939  0.02168393     1.03300
H321        H  0.94303596  0.85359206  0.03212565     0.30700
O322        O  0.95152299  0.87898619  0.02936405    -1.04600
H323        H  0.06100694  0.99838167  0.03454355     0.32700
O324        O  0.03504195  0.98168573  0.03114671    -1.07200
O325        O  0.70310324  0.34053101  0.39633723    -0.79700
O326        O  0.65992626  0.17234997  0.35150470    -0.81300
O327        O  0.65883268  0.21467831  0.39517216    -0.78300
O328        O  0.76119564  0.28056983  0.37070296    -0.76700
O329        O  0.77268281  0.31707914  0.35273057    -0.78500
O330        O  0.59500124  0.20002840  0.39469766    -0.79400
O331        O  0.69590746  0.19785877  0.37036475    -0.80700
O332        O  0.72059944  0.29469783  0.39652360    -0.81000
Eu333      Eu  0.69250899  0.25495735  0.37663349     2.39200
O334        O  0.69404893  0.25546228  0.35366785    -0.88500
O335        O  0.64729633  0.27296656  0.38350865    -0.92100
C336        C  0.71947156  0.32342616  0.40166081     1.02600
C337        C  0.68189250  0.17275458  0.36090048     1.02400
C338        C  0.62410064  0.19873541  0.39984459     1.02300
C339        C  0.78338114  0.30198971  0.36164403     1.00200
H340        H  0.62229819  0.18609672  0.37142934     0.29900
O341        O  0.62999822  0.21110531  0.36841107    -1.00900
H342        H  0.73697414  0.33412430  0.37309080     0.30000
O343        O  0.71153719  0.31645855  0.36948536    -1.03500
O344        O  0.58960519  0.19976882  0.32635293    -0.80700
O345        O  0.63700393  0.37262387  0.36986988    -0.80200
O346        O  0.54420594  0.16286294  0.36852871    -0.78700
O347        O  0.72406348  0.28379884  0.32791365    -0.82000
O348        O  0.75243183  0.38338429  0.35358476    -0.79900
O349        O  0.57368645  0.26129365  0.39437039    -0.78500
O350        O  0.53623956  0.26207373  0.35000503    -0.80000
O351        O  0.63927422  0.33356884  0.32724804    -0.82000
O352        O  0.52430280  0.22725045  0.36845176    -0.78700
O353        O  0.70342366  0.34939592  0.32779333    -0.81400
O354        O  0.57308256  0.15253330  0.35068114    -0.77100
O355        O  0.62141133  0.32365998  0.39461578    -0.77100
O356        O  0.72448458  0.39379627  0.37168848    -0.76800
O357        O  0.67649792  0.22134604  0.32731949    -0.80300
O358        O  0.57383528  0.24675904  0.32583458    -0.79700
O359        O  0.60019623  0.34597704  0.35121572    -0.78000
Eu360      Eu  0.63198656  0.21169888  0.34537928     2.39800
Eu361      Eu  0.66554637  0.33377862  0.37640265     2.39600
Eu362      Eu  0.58490980  0.22952858  0.37545339     2.38400
Eu363      Eu  0.71252621  0.31648954  0.34637405     2.39900
Eu364      Eu  0.60517425  0.28988746  0.34493717     2.39800
O365        O  0.66708796  0.33395800  0.35342350    -0.92400
O366        O  0.58644199  0.22908391  0.35241099    -0.91300
C367        C  0.57216575  0.21609948  0.32124105     1.02700
C368        C  0.61438308  0.37148685  0.36054260     1.01400
C369        C  0.54594368  0.14157903  0.35927822     1.00800
C370        C  0.70759544  0.24973352  0.32295812     1.02800
C371        C  0.75120710  0.40477137  0.36293469     1.01800
C372        C  0.59074040  0.29543450  0.39927038     1.00600
C373        C  0.51378707  0.24106237  0.35904246     1.00700
C374        C  0.67437591  0.35143529  0.32291531     1.03300
H375        H  0.58478785  0.29778384  0.37099105     0.30700
O376        O  0.60327015  0.29036705  0.36801342    -1.04600
H377        H  0.65117548  0.27230254  0.32832256     0.32700
O378        O  0.65057494  0.27248077  0.33778171    -1.07200
O379        O  0.40964045  0.74283254  0.67480461    -0.79700
O380        O  0.25006563  0.61849822  0.72218830    -0.81300
O381        O  0.29583615  0.72657448  0.69244319    -0.78300
O382        O  0.37610152  0.71381768  0.71839768    -0.76700
O383        O  0.40199591  0.67460969  0.71995722    -0.78500
O384        O  0.25730510  0.69184690  0.67495079    -0.79400
O385        O  0.28780984  0.68254201  0.71970218    -0.80700
O386        O  0.38196585  0.75391650  0.69286592    -0.81000
Eu387      Eu  0.32948849  0.69307464  0.70033687     2.39200
O388        O  0.32112315  0.63676889  0.70938311    -0.88500
O389        O  0.32712824  0.68716343  0.67737100    -0.92100
C390        C  0.40686743  0.76483370  0.68351240     1.02600
C391        C  0.26251925  0.65325834  0.72588612     1.02400
C392        C  0.27145626  0.72066122  0.68299789     1.02300
C393        C  0.39883072  0.70373002  0.72374217     1.00200
H394        H  0.24919921  0.64875431  0.69720967     0.29900
O395        O  0.26850123  0.64262587  0.69407891    -1.00900
H396        H  0.40457148  0.70153503  0.69577145     0.30000
O397        O  0.37927979  0.68097256  0.69309671    -1.03500
O398        O  0.22201535  0.51812764  0.69692290    -0.80700
O399        O  0.38643487  0.64172005  0.65146580    -0.80200
O400        O  0.19851363  0.60689302  0.67841663    -0.78700
O401        O  0.34460305  0.58621937  0.72150211    -0.82000
O402        O  0.43724018  0.65294050  0.69421628    -0.79900
O403        O  0.29235591  0.67312022  0.65107014    -0.78500
O404        O  0.25868540  0.54886629  0.65359675    -0.80000
O405        O  0.33930871  0.53633305  0.67910733    -0.82000
O406        O  0.23440767  0.58944486  0.65309218    -0.78700
O407        O  0.37821609  0.56813321  0.69694609    -0.81400
O408        O  0.19524454  0.57994502  0.69820256    -0.77100
O409        O  0.35835973  0.69729550  0.65030787    -0.77100
O410        O  0.44115176  0.68245334  0.67500001    -0.76800
O411        O  0.27827001  0.55981895  0.72210820    -0.80300
O412        O  0.24901240  0.50818687  0.67847025    -0.79700
O413        O  0.34473761  0.57801722  0.65295961    -0.78000
Eu414      Eu  0.25949176  0.58592272  0.70323019     2.39800
Eu415      Eu  0.37619630  0.67465156  0.67002639     2.39600
Eu416      Eu  0.26576909  0.63680770  0.67100561     2.38400
Eu417      Eu  0.37029033  0.62435247  0.70210061     2.39900
Eu418      Eu  0.30451458  0.56843567  0.67233601     2.39800
O419        O  0.36641048  0.61797742  0.67902041    -0.92400
O420        O  0.25553566  0.58011260  0.68010318    -0.91300
C421        C  0.22318999  0.49689937  0.68750641     1.02700
C422        C  0.37156014  0.60711497  0.64720465     1.01400
C423        C  0.18038655  0.58970189  0.68876806     1.00800
C424        C  0.31125163  0.56499044  0.72667280     1.02800
C425        C  0.45589991  0.67175398  0.68416124     1.01800
C426        C  0.32569851  0.69213253  0.64555572     1.00600
C427        C  0.23699661  0.56088246  0.64856784     1.00700
C428        C  0.36384323  0.54066374  0.68819533     1.03300
H429        H  0.31290713  0.62219081  0.65404900     0.30700
O430        O  0.31456223  0.62487894  0.66348950    -1.04600
H431        H  0.30416971  0.55050399  0.69891627     0.32700
O432        O  0.30843987  0.57404935  0.69542396    -1.07200
O433        O  0.30878634  0.51818103  0.15240397    -0.79700
O434        O  0.43691496  0.69619771  0.19449290    -0.81300
O435        O  0.39883012  0.64789403  0.15271370    -0.78300
O436        O  0.42625341  0.58248338  0.17904817    -0.76700
O437        O  0.39937003  0.54909240  0.19752471    -0.78500
O438        O  0.35417745  0.66806583  0.15153726    -0.79400
O439        O  0.44659153  0.66365746  0.17761075    -0.80700
O440        O  0.37356749  0.56260803  0.15316226    -0.81000
Eu441      Eu  0.38473390  0.60767947  0.17142892     2.39200
O442        O  0.38406597  0.61120888  0.19434360    -0.88500
O443        O  0.32356998  0.59259718  0.16260151    -0.92100
C444        C  0.34393779  0.53261499  0.14822121     1.02600
C445        C  0.45840405  0.69199853  0.18578700     1.02400
C446        C  0.38466651  0.66697057  0.14749528     1.02300
C447        C  0.42637701  0.56311985  0.18885429     1.00200
H448        H  0.38779667  0.67901412  0.17495416     0.29900
O449        O  0.36894866  0.65453700  0.17810018    -1.00900
H450        H  0.34549575  0.52911799  0.17581201     0.30000
O451        O  0.33862294  0.54780484  0.17870159    -1.03500
O452        O  0.33528962  0.67002694  0.21982402    -0.80700
O453        O  0.20727505  0.49641269  0.17561482    -0.80200
O454        O  0.33224751  0.70506474  0.17670745    -0.78700
O455        O  0.38309759  0.58608599  0.22059505    -0.82000
O456        O  0.30752486  0.48204854  0.19531219    -0.79900
O457        O  0.26444201  0.60608469  0.15053748    -0.78500
O458        O  0.22127831  0.60876648  0.19308257    -0.80000
O459        O  0.24791304  0.53967461  0.21928463    -0.82000
O460        O  0.24794156  0.64185801  0.17447687    -0.78700
O461        O  0.29461317  0.52207562  0.22001305    -0.81400
O462        O  0.36844464  0.71649166  0.19551531    -0.77100
O463        O  0.24606199  0.54315749  0.15078613    -0.77100
O464        O  0.26886211  0.47324904  0.17732298    -0.76800
O465        O  0.40074183  0.64892195  0.21992134    -0.80300
O466        O  0.27083427  0.62461371  0.21880277    -0.79700
O467        O  0.19836861  0.52467229  0.19392804    -0.78000
Eu468      Eu  0.36798999  0.65765862  0.20114723     2.39800
Eu469      Eu  0.27685159  0.53327498  0.17021933     2.39600
Eu470      Eu  0.30725982  0.63857471  0.16957875     2.38400
Eu471      Eu  0.33888833  0.55090000  0.20177230     2.39900
Eu472      Eu  0.26041518  0.58068922  0.20037498     2.39800
O473        O  0.27694540  0.53519903  0.19330048    -0.92400
O474        O  0.30602447  0.64054472  0.19268105    -0.91300
C475        C  0.29998340  0.65426969  0.22408174     1.02700
C476        C  0.18589666  0.49872882  0.18474064     1.01400
C477        C  0.35305256  0.72664275  0.18641813     1.00800
C478        C  0.40171459  0.62081981  0.22507973     1.02800
C479        C  0.28261778  0.46105591  0.18620605     1.01800
C480        C  0.24564706  0.57180478  0.14577052     1.00600
C481        C  0.22169712  0.62887638  0.18343173     1.00700
C482        C  0.26405099  0.52199447  0.22441159     1.03300
H483        H  0.23542731  0.57197430  0.17387505     0.30700
O484        O  0.26093033  0.57896975  0.17731537    -1.04600
H485        H  0.32211491  0.59816157  0.21813853     0.32700
O486        O  0.32248132  0.59716388  0.20868195    -1.07200
O487        O  0.01015213  0.03738869  0.55272308    -0.79700
O488        O  0.87681144  0.86340056  0.50973806    -0.81300
O489        O  0.89973791  0.98622431  0.52426766    -0.78300
O490        O  0.91063100  0.91161703  0.55206061    -0.76700
O491        O  0.95100823  0.88700626  0.55506884    -0.78500
O492        O  0.93491709  0.01743376  0.50641542    -0.79400
O493        O  0.86748458  0.89589780  0.52670950    -0.80700
O494        O  0.94411892  0.99827896  0.55084313    -0.81000
Eu495      Eu  0.93094614  0.95126714  0.53302322     2.39200
O496        O  0.94201612  0.90064028  0.52767116    -0.88500
O497        O  0.98377586  0.00790148  0.52602961    -0.92100
C498        C  0.97473192  0.02624664  0.55627510     1.02600
C499        C  0.85529792  0.86805339  0.51820843     1.02400
C500        C  0.90705705  0.00842456  0.51451810     1.02300
C501        C  0.92162234  0.89118200  0.55816382     1.00200
H502        H  0.91066327  0.94165951  0.50613318     0.29900
O503        O  0.93476551  0.94621614  0.51016898    -1.00900
H504        H  0.98784042  0.96348839  0.55256320     0.30000
O505        O  0.98949442  0.96170969  0.54315614    -1.03500
O506        O  0.97707678  0.87826860  0.48698851    -0.80700
O507        O  0.11246470  0.05026945  0.53006555    -0.80200
O508        O  0.94641387  0.97196644  0.48362546    -0.78700
O509        O  0.96771224  0.84371169  0.53184885    -0.82000
O510        O  0.04402670  0.94151994  0.55677082    -0.79900
O511        O  0.01958731  0.07222187  0.50975766    -0.78500
O512        O  0.07273075  0.00033870  0.48705461    -0.80000
O513        O  0.08584739  0.92835013  0.51585868    -0.82000
O514        O  0.03377783  0.02698936  0.48547977    -0.78700
O515        O  0.05386053  0.89744142  0.53424745    -0.81400
O516        O  0.92172604  0.90783735  0.48441060    -0.77100
O517        O  0.05430823  0.07967115  0.52865137    -0.77100
O518        O  0.06908344  0.00555846  0.55548443    -0.76800
O519        O  0.93707250  0.83408375  0.51190206    -0.80300
O520        O  0.04309537  0.91625829  0.48929483    -0.79700
O521        O  0.11948020  0.01526270  0.51343353    -0.78000
Eu522      Eu  0.94618274  0.89564292  0.50474956     2.39800
Eu523      Eu  0.04234108  0.01821994  0.53575151     2.39600
Eu524      Eu  0.98735252  0.00373246  0.50321558     2.38400
Eu525      Eu  0.00041577  0.91123097  0.53769568     2.39900
Eu526      Eu  0.05556487  0.96310384  0.50704014     2.39800
O527        O  0.05263400  0.96764059  0.53003077    -0.92400
O528        O  0.99741031  0.95295517  0.49741853    -0.91300
C529        C  0.01245441  0.88921270  0.48357914     1.02700
C530        C  0.13301336  0.04367228  0.52162579     1.01400
C531        C  0.92587312  0.93774786  0.47888093     1.00800
C532        C  0.94784931  0.82258419  0.52195955     1.02800
C533        C  0.06591062  0.97600568  0.56101698     1.01800
C534        C  0.04242198  0.09248915  0.51938899     1.00600
C535        C  0.06098268  0.02094714  0.48135328     1.00700
C536        C  0.08074308  0.90687430  0.52559998     1.03300
H537        H  0.06696027  0.03766471  0.50956609     0.30700
O538        O  0.04600054  0.01431605  0.51276550    -1.04600
H539        H  0.00938498  0.88623854  0.51231827     0.32700
O540        O  0.00440701  0.90653920  0.51471682    -1.07200
C541        C  0.99290312  0.10985974  0.93228866     0.19100
C542        C  0.02592873  0.11484792  0.93917162    -0.19000
C543        C  0.02214590  0.09519264  0.95063847    -0.11300
C544        C  0.98499375  0.06964225  0.95539312     0.21300
C545        C  0.95204590  0.06440944  0.94841212    -0.20600
C546        C  0.95582871  0.08396567  0.93696413    -0.11500
C547        C  0.97880475  0.04800979  0.96755798    -0.15600
C548        C  0.00659505  0.04411420  0.97376815    -0.29500
C549        C  0.99830478  0.13194822  0.92029581    -0.03700
C550        C  0.97061366  0.13834484  0.91534469    -0.40300
H551        H  0.05482959  0.13449943  0.93577259     0.12500
H552        H  0.04843584  0.10073431  0.95575883     0.12100
H553        H  0.92308952  0.04477711  0.95177347     0.11600
H554        H  0.92952581  0.07814673  0.93177946     0.11800
H555        H  0.94937811  0.03344549  0.97132512     0.14500
H556        H  0.03596773  0.05718982  0.97005945     0.13300
H557        H  0.02669106  0.14480152  0.91573587     0.11000
H558        H  0.94274813  0.12743866  0.92010781     0.13000
C559        C  0.82158163  0.23302163  0.86815402     0.19100
C560        C  0.83125308  0.22959360  0.88108732    -0.19000
C561        C  0.86349049  0.22542241  0.88380855    -0.11300
C562        C  0.88673168  0.22404216  0.87360260     0.21300
C563        C  0.87764778  0.22824381  0.86067472    -0.20600
C564        C  0.84523874  0.23238237  0.85793089    -0.11500
C565        C  0.92034941  0.21810358  0.87624220    -0.15600
C566        C  0.92044875  0.19754269  0.88634605    -0.29500
C567        C  0.78655140  0.23697136  0.86594520    -0.03700
C568        C  0.77916691  0.24998319  0.85492151    -0.40300
H569        H  0.81388590  0.23038179  0.88917307     0.12500
H570        H  0.87029278  0.22366193  0.89394991     0.12100
H571        H  0.89516365  0.22744898  0.85264645     0.11600
H572        H  0.83861702  0.23434759  0.84780148     0.11800
H573        H  0.94447453  0.22935093  0.86947412     0.14500
H574        H  0.89517182  0.18435561  0.89258502     0.13300
H575        H  0.76709885  0.23109578  0.87417351     0.11000
H576        H  0.79922209  0.25838985  0.84682127     0.13000
C577        C  0.29708455  0.45916628  0.77748477     0.19100
C578        C  0.32776815  0.47863915  0.76879018    -0.19000
C579        C  0.32347937  0.49706230  0.75803861    -0.11300
C580        C  0.28832076  0.49705667  0.75571269     0.21300
C581        C  0.25740882  0.47725189  0.76427787    -0.20600
C582        C  0.26164934  0.45872025  0.77504643    -0.11500
C583        C  0.28287578  0.51654968  0.74428968    -0.15600
C584        C  0.31315046  0.54596775  0.73863475    -0.29500
C585        C  0.30331541  0.43912113  0.78861041    -0.03700
C586        C  0.27601778  0.41901357  0.79746447    -0.40300
H587        H  0.35521562  0.47926251  0.77022045     0.12500
H588        H  0.34767512  0.51053309  0.75144136     0.12100
H589        H  0.22986787  0.47631603  0.76268684     0.11600
H590        H  0.23677821  0.44412240  0.78126263     0.11800
H591        H  0.25357003  0.50672784  0.74056460     0.14500
H592        H  0.34215830  0.55658061  0.74272828     0.13300
H593        H  0.33129150  0.44028401  0.78935620     0.11000
H594        H  0.24781179  0.41713680  0.79696611     0.13000
C595        C  0.46836314  0.35646008  0.83971540     0.19100
C596        C  0.46511826  0.37584812  0.82901017    -0.19000
C597        C  0.43081641  0.37697627  0.82653323    -0.11300
C598        C  0.39835447  0.35867196  0.83475217     0.21300
C599        C  0.40159375  0.33931288  0.84549208    -0.20600
C600        C  0.43593605  0.33813871  0.84796081    -0.11500
C601        C  0.36041363  0.35794724  0.83232850    -0.15600
C602        C  0.35478197  0.37830665  0.82315987    -0.29500
C603        C  0.50513790  0.35450424  0.84134737    -0.03700
C604        C  0.51359759  0.33975282  0.85173620    -0.40300
H605        H  0.48921514  0.38992939  0.82237520     0.12500
H606        H  0.43006618  0.39174167  0.81799888     0.12100
H607        H  0.37721315  0.32462735  0.85197614     0.11600
H608        H  0.43628132  0.32213842  0.85619080     0.11800
H609        H  0.33597045  0.33970961  0.83839873     0.14500
H610        H  0.37871347  0.39734439  0.81713829     0.13300
H611        H  0.52568467  0.36463305  0.83335247     0.11000
H612        H  0.49383766  0.32956100  0.85989620     0.13000
C613        C  0.17065685  0.28740981  0.84875984     0.19100
C614        C  0.16958440  0.28073036  0.86221959    -0.19000
C615        C  0.13406241  0.26317157  0.86880996    -0.11300
C616        C  0.09869373  0.25151112  0.86200501     0.21300
C617        C  0.09972127  0.25727355  0.84849625    -0.20600
C618        C  0.13510578  0.27452114  0.84190899    -0.11500
C619        C  0.06045480  0.23461982  0.86869466    -0.15600
C620        C  0.05338165  0.21561694  0.87986841    -0.29500
C621        C  0.20904194  0.30872611  0.84216809    -0.03700
C622        C  0.21337583  0.32985133  0.83171379    -0.40300
H623        H  0.19639574  0.29017391  0.86773428     0.12500
H624        H  0.13464624  0.25995195  0.87928381     0.12100
H625        H  0.07297112  0.24830314  0.84299404     0.11600
H626        H  0.13433657  0.27760939  0.83143288     0.11800
H627        H  0.03702389  0.23687877  0.86402507     0.14500
H628        H  0.07577083  0.21110892  0.88418431     0.13300
H629        H  0.23434647  0.30896542  0.84641692     0.11000
H630        H  0.18851649  0.33156151  0.82809792     0.13000
C631        C  0.19195118  0.58690182  0.11663180     0.19100
C632        C  0.18553486  0.61681687  0.11357768    -0.19000
C633        C  0.16254942  0.61416826  0.10276489    -0.11300
C634        C  0.14528501  0.58131889  0.09454969     0.21300
C635        C  0.15185216  0.55137466  0.09757917    -0.20600
C636        C  0.17490568  0.55404030  0.10845506    -0.11500
C637        C  0.12005695  0.57681174  0.08289862    -0.15600
C638        C  0.11295935  0.60408376  0.07875872    -0.29500
C639        C  0.21697017  0.59200794  0.12832000    -0.03700
C640        C  0.22137662  0.56446899  0.13378173    -0.40300
H641        H  0.19824848  0.64250820  0.11966285     0.12500
H642        H  0.15856648  0.63810835  0.10110695     0.12100
H643        H  0.13911954  0.52572971  0.09147825     0.11600
H644        H  0.17942258  0.53043624  0.11026030     0.11800
H645        H  0.10659697  0.54974936  0.07753709     0.14500
H646        H  0.12604796  0.63149070  0.08376333     0.13300
H647        H  0.23188610  0.62018588  0.13291174     0.11000
H648        H  0.20618907  0.53573359  0.12974661     0.13000
C649        C  0.03284905  0.69669665  0.03826409     0.19100
C650        C  0.00463702  0.69422234  0.02928715    -0.19000
C651        C  0.00067059  0.72597199  0.02682057    -0.11300
C652        C  0.02518401  0.76107366  0.03325126     0.21300
C653        C  0.05390942  0.76366307  0.04195630    -0.20600
C654        C  0.05803380  0.73216862  0.04434224    -0.11500
C655        C  0.02090402  0.79524821  0.03185505    -0.15600
C656        C  0.00178775  0.80075002  0.02195947    -0.29500
C657        C  0.03567381  0.66212910  0.04091761    -0.03700
C658        C  0.05348816  0.65897006  0.05169367    -0.40300
H659        H  0.98508132  0.66743446  0.02435216     0.12500
H660        H  0.97776464  0.72252129  0.02017773     0.12100
H661        H  0.07339429  0.79033399  0.04697807     0.11600
H662        H  0.08132571  0.73614585  0.05088440     0.11800
H663        H  0.03460610  0.81727446  0.03947075     0.14500
H664        H  0.98871973  0.77982259  0.01401105     0.13300
H665        H  0.02223597  0.63843609  0.03388811     0.11000
H666        H  0.06569405  0.68170025  0.05906587     0.13000
C667        C  0.91251015  0.11625345  0.01438674     0.19100
C668        C  0.88399435  0.11342505  0.00552537    -0.19000
C669        C  0.88012586  0.14489628  0.00285162    -0.11300
C670        C  0.90524354  0.18049721  0.00884524     0.21300
C671        C  0.93239928  0.18297534  0.01826290    -0.20600
C672        C  0.93619981  0.15130821  0.02099140    -0.11500
C673        C  0.90426573  0.21547813  0.00537136    -0.15600
C674        C  0.88876915  0.21852881  0.99401343    -0.29500
C675        C  0.91752626  0.08244743  0.01566042    -0.03700
C676        C  0.94093207  0.07908709  0.02447996    -0.40300
H677        H  0.86488567  0.08674435  0.00044181     0.12500
H678        H  0.85741498  0.14093865  0.99603418     0.12100
H679        H  0.95164584  0.20982727  0.02321842     0.11600
H680        H  0.95852557  0.15499488  0.02793064     0.11800
H681        H  0.91797279  0.23984502  0.01211835     0.14500
H682        H  0.87615826  0.19498688  0.98695545     0.13300
H683        H  0.90131250  0.05907511  0.00867926     0.11000
H684        H  0.95671941  0.10117689  0.03187731     0.13000
C685        C  0.76355427  0.28688112  0.92411010     0.19100
C686        C  0.77670950  0.26136707  0.92662894    -0.19000
C687        C  0.79944049  0.26612523  0.93778523    -0.11300
C688        C  0.80888710  0.29620830  0.94691906     0.21300
C689        C  0.79496314  0.32126829  0.94452120    -0.20600
C690        C  0.77239209  0.31661741  0.93329751    -0.11500
C691        C  0.83393852  0.30287522  0.95878918    -0.15600
C692        C  0.83904328  0.27551958  0.96396705    -0.29500
C693        C  0.74095389  0.28163280  0.91179876    -0.03700
C694        C  0.74094800  0.31056815  0.90569447    -0.40300
H695        H  0.77028537  0.23821098  0.91973368     0.12500
H696        H  0.81028102  0.24665227  0.93894067     0.12100
H697        H  0.80152584  0.34453168  0.95137736     0.11600
H698        H  0.76174352  0.33619667  0.93191773     0.11800
H699        H  0.84782321  0.33081710  0.96355278     0.14500
H700        H  0.82377606  0.24704822  0.95969851     0.13300
H701        H  0.72564693  0.25341557  0.90725147     0.11000
H702        H  0.75775058  0.33915930  0.90982157     0.13000
C703        C  0.94757380  0.42027329  0.00678449     0.19100
C704        C  0.98361092  0.43127286  0.01297148    -0.19000
C705        C  0.00193359  0.46425352  0.02095397    -0.11300
C706        C  0.98456391  0.48692838  0.02297520     0.21300
C707        C  0.94919969  0.47645583  0.01647194    -0.20600
C708        C  0.93098595  0.44359313  0.00845523    -0.11500
C709        C  0.00299275  0.52225986  0.03137746    -0.15600
C710        C  0.02840455  0.52864479  0.04124830    -0.29500
C711        C  0.92671926  0.38499702  0.99844552    -0.03700
C712        C  0.92895413  0.35361650  0.00064805    -0.40300
H713        H  0.99802991  0.41480004  0.01150507     0.12500
H714        H  0.02995914  0.47215114  0.02531811     0.12100
H715        H  0.93538633  0.49358942  0.01769851     0.11600
H716        H  0.90348349  0.43602523  0.00370113     0.11800
H717        H  0.99424508  0.54324289  0.02962326     0.14500
H718        H  0.03579251  0.50710370  0.04362164     0.13300
H719        H  0.90697204  0.38404707  0.99084809     0.11000
H720        H  0.94682814  0.35367373  0.00873534     0.13000
C721        C  0.14676856  0.65547278  0.17022111     0.19100
C722        C  0.13873611  0.66348742  0.15767782    -0.19000
C723        C  0.10532573  0.66596566  0.15525013    -0.11300
C724        C  0.07921668  0.66106050  0.16541161     0.21300
C725        C  0.08727710  0.65323432  0.17796560    -0.20600
C726        C  0.12077341  0.65077147  0.18040664    -0.11500
C727        C  0.04318397  0.66332368  0.16315955    -0.15600
C728        C  0.04039438  0.68357567  0.15346212    -0.29500
C729        C  0.18203067  0.65158812  0.17204840    -0.03700
C730        C  0.18871983  0.63622364  0.18258873    -0.40300
H731        H  0.15802022  0.66710808  0.14962107     0.12500
H732        H  0.09974986  0.67079429  0.14530836     0.12100
H733        H  0.06773604  0.64934908  0.18595866     0.11600
H734        H  0.12597745  0.64540989  0.19030542     0.11800
H735        H  0.01898661  0.64889500  0.16978193     0.14500
H736        H  0.06522320  0.69950336  0.14724692     0.13300
H737        H  0.20231028  0.65979785  0.16397707     0.11000
H738        H  0.16826605  0.62622224  0.19056159     0.13000
C739        C  0.95426677  0.75994155  0.10857507     0.19100
C740        C  0.93109921  0.77707841  0.10783425    -0.19000
C741        C  0.93385508  0.79912943  0.09717778    -0.11300
C742        C  0.95974054  0.80415396  0.08698188     0.21300
C743        C  0.98252830  0.78665060  0.08763189    -0.20600
C744        C  0.97962944  0.76447103  0.09822805    -0.11500
C745        C  0.96522252  0.82860774  0.07578294    -0.15600
C746        C  0.93842014  0.83725567  0.07158186    -0.29500
C747        C  0.95101636  0.73759763  0.12025060    -0.03700
C748        C  0.97877591  0.72972582  0.12393142    -0.40300
H749        H  0.91129892  0.77397025  0.11565586     0.12500
H750        H  0.91645627  0.81288539  0.09716556     0.12100
H751        H  0.00256717  0.79000395  0.07985876     0.11600
H752        H  0.99706745  0.75077693  0.09812803     0.11800
H753        H  0.99229257  0.83892261  0.07047864     0.14500
H754        H  0.91023069  0.82551581  0.07619954     0.13300
H755        H  0.92564692  0.72883190  0.12637071     0.11000
H756        H  0.00532251  0.73985033  0.11839599     0.13000
C757        C  0.66007373  0.44498764  0.27216180     0.19100
C758        C  0.63254006  0.43785390  0.28194544    -0.19000
C759        C  0.63199394  0.41891179  0.29325022    -0.11300
C760        C  0.65897423  0.40650129  0.29513812     0.21300
C761        C  0.68695896  0.41389292  0.28543220    -0.20600
C762        C  0.68747675  0.43285831  0.27406764    -0.11500
C763        C  0.65478517  0.38380618  0.30689976    -0.15600
C764        C  0.68187104  0.37581959  0.31146091    -0.29500
C765        C  0.65801879  0.46395572  0.26006473    -0.03700
C766        C  0.68634100  0.47885258  0.25110232    -0.40300
H767        H  0.61102257  0.44669144  0.28079480     0.12500
H768        H  0.60996619  0.41350795  0.30050273     0.12100
H769        H  0.70770064  0.40407176  0.28631301     0.11600
H770        H  0.70871542  0.43683222  0.26671629     0.11800
H771        H  0.62758039  0.37315250  0.31214154     0.14500
H772        H  0.71012846  0.38752465  0.30690952     0.13300
H773        H  0.63227170  0.46664222  0.25866951     0.11000
H774        H  0.71304188  0.47798411  0.25245173     0.13000
C775        C  0.57413094  0.54125453  0.21012187     0.19100
C776        C  0.56776745  0.55021926  0.19748359    -0.19000
C777        C  0.53422959  0.55216705  0.19445203    -0.11300
C778        C  0.50617516  0.54553545  0.20409304     0.21300
C779        C  0.51291879  0.53715842  0.21678609    -0.20600
C780        C  0.54637661  0.53513544  0.21979798    -0.11500
C781        C  0.46987242  0.54745424  0.20159240    -0.15600
C782        C  0.46080112  0.55794656  0.19026103    -0.29500
C783        C  0.61037862  0.53951593  0.21286143    -0.03700
C784        C  0.61450706  0.52112561  0.22301625    -0.40300
H785        H  0.58874089  0.55543416  0.18985415     0.12500
H786        H  0.53072549  0.55875811  0.18453716     0.12100
H787        H  0.49225451  0.53237493  0.22448809     0.11600
H788        H  0.55051442  0.52942746  0.22978317     0.11800
H789        H  0.45016568  0.54120008  0.20976166     0.14500
H790        H  0.48020844  0.56567436  0.18200640     0.13300
H791        H  0.63415673  0.55303167  0.20602380     0.11000
H792        H  0.59051015  0.50604988  0.22962173     0.13000
C793        C  0.79296021  0.59262638  0.19516697     0.19100
C794        C  0.79240895  0.59850862  0.18169231    -0.19000
C795        C  0.82695231  0.61477018  0.17453737    -0.11300
C796        C  0.86309412  0.62612227  0.18077163     0.21300
C797        C  0.86366755  0.62090532  0.19428700    -0.20600
C798        C  0.82918673  0.60472212  0.20143035    -0.11500
C799        C  0.90043255  0.64223974  0.17346574    -0.15600
C800        C  0.90581868  0.66004302  0.16208646    -0.29500
C801        C  0.75551804  0.57389546  0.20243535    -0.03700
C802        C  0.75112890  0.55386343  0.21322991    -0.40300
H803        H  0.76503592  0.58963800  0.17661405     0.12500
H804        H  0.82492938  0.61737037  0.16408365     0.12100
H805        H  0.89098874  0.62956248  0.19936906     0.11600
H806        H  0.83119259  0.60207371  0.21188389     0.11800
H807        H  0.92444785  0.64021190  0.17775895     0.14500
H808        H  0.88277944  0.66414459  0.15811929     0.13300
H809        H  0.73075595  0.57537876  0.19854502     0.11000
H810        H  0.77516529  0.55048763  0.21665231     0.13000
C811        C  0.35198349  0.74621467  0.61311044     0.19100
C812        C  0.37872334  0.78339976  0.60961603    -0.19000
C813        C  0.37277317  0.79851683  0.59819277    -0.11300
C814        C  0.34007481  0.77642142  0.58999821     0.21300
C815        C  0.31451920  0.73875661  0.59320061    -0.20600
C816        C  0.32057171  0.72367002  0.60451478    -0.11500
C817        C  0.32966282  0.79218525  0.57868979    -0.15600
C818        C  0.35554492  0.82191084  0.57186953    -0.29500
C819        C  0.35621436  0.73173386  0.62593456    -0.03700
C820        C  0.32470194  0.70770277  0.63271794    -0.40300
H821        H  0.40331507  0.80126481  0.61601005     0.12500
H822        H  0.39281204  0.82786263  0.59614217     0.12100
H823        H  0.28934624  0.72103144  0.58700789     0.11600
H824        H  0.30022077  0.69441691  0.60660119     0.11800
H825        H  0.29911121  0.77823180  0.57577493     0.14500
H826        H  0.38646484  0.83475371  0.57403932     0.13300
H827        H  0.38514348  0.74261784  0.63017933     0.11000
H828        H  0.29591446  0.69929172  0.62880359     0.13000
C829        C  0.13994173  0.86081184  0.53717116     0.19100
C830        C  0.15407781  0.85785161  0.54944952    -0.19000
C831        C  0.18607282  0.85203850  0.55031609    -0.11300
C832        C  0.20418803  0.84879990  0.53886071     0.21300
C833        C  0.18862367  0.84965527  0.52662438    -0.20600
C834        C  0.15655078  0.85504465  0.52576312    -0.11500
C835        C  0.24176874  0.84907040  0.53920472    -0.15600
C836        C  0.25403849  0.83669302  0.54924900    -0.29500
C837        C  0.10946447  0.87196133  0.53645014    -0.03700
C838        C  0.10833577  0.89262485  0.52654558    -0.40300
H839        H  0.14158440  0.86189395  0.55837550     0.12500
H840        H  0.19774763  0.85215800  0.55992084     0.12100
H841        H  0.20192195  0.84701165  0.51767072     0.11600
H842        H  0.14538913  0.85545628  0.51612167     0.11800
H843        H  0.26065967  0.86103593  0.53085329     0.14500
H844        H  0.23479931  0.82252874  0.55731649     0.13300
H845        H  0.08971984  0.86565511  0.54460618     0.11000
H846        H  0.12983208  0.90112281  0.51887182     0.13000
C847        C  0.63593246  0.12352186  0.45559461     0.19100
C848        C  0.60847379  0.13394846  0.45191225    -0.19000
C849        C  0.61039906  0.14959491  0.43970762    -0.11300
C850        C  0.63965882  0.15461022  0.43080455     0.21300
C851        C  0.66656039  0.14332412  0.43437775    -0.20600
C852        C  0.66465647  0.12773265  0.44658549    -0.11500
C853        C  0.64458015  0.17324468  0.41804868    -0.15600
C854        C  0.61686006  0.17787532  0.41212017    -0.29500
C855        C  0.63355830  0.10843302  0.46887613    -0.03700
C856        C  0.66419355  0.10983189  0.47513183    -0.40300
H857        H  0.58597716  0.13085200  0.45864763     0.12500
H858        H  0.58956521  0.15860612  0.43752946     0.12100
H859        H  0.68928836  0.14670581  0.42770008     0.11600
H860        H  0.68558513  0.11886679  0.44883341     0.11800
H861        H  0.67250963  0.18356782  0.41330850     0.14500
H862        H  0.58812349  0.16638917  0.41628866     0.13300
H863        H  0.60596180  0.09726814  0.47389919     0.11000
H864        H  0.69239152  0.12216060  0.47050750     0.13000
C865        C  0.82764453  0.03680298  0.51505446     0.19100
C866        C  0.80846521  0.04604609  0.52475254    -0.19000
C867        C  0.78535643  0.06176518  0.52137672    -0.11300
C868        C  0.78027912  0.06770231  0.50813388     0.21300
C869        C  0.80019787  0.05921162  0.49848296    -0.20600
C870        C  0.82332625  0.04363888  0.50185725    -0.11500
C871        C  0.75293700  0.08050775  0.50383170    -0.15600
C872        C  0.72317575  0.07694608  0.51116632    -0.29500
C873        C  0.85152375  0.01958177  0.51884789    -0.03700
C874        C  0.88256161  0.02535636  0.51185660    -0.40300
H875        H  0.81155759  0.04128807  0.53497364     0.12500
H876        H  0.77162356  0.06905109  0.52919567     0.12100
H877        H  0.79680108  0.06341241  0.48822429     0.11600
H878        H  0.83675388  0.03593414  0.49403143     0.11800
H879        H  0.75490539  0.08940303  0.49376914     0.14500
H880        H  0.71927788  0.06622060  0.52098724     0.13300
H881        H  0.84414084  0.00291929  0.52762172     0.11000
H882        H  0.89114645  0.04404648  0.50360139     0.13000
C883        C  0.45593861  0.96326387  0.53194402     0.19100
C884        C  0.48726780  0.99405492  0.53849412    -0.19000
C885        C  0.51896715  0.02077830  0.53151341    -0.11300
C886        C  0.52023035  0.01681990  0.51780700     0.21300
C887        C  0.48787656  0.98736933  0.51117311    -0.20600
C888        C  0.45605525  0.96066302  0.51815795    -0.11500
C889        C  0.55592952  0.04085213  0.51031949    -0.15600
C890        C  0.59157166  0.05417466  0.51566345    -0.29500
C891        C  0.42542394  0.93303851  0.53986441    -0.03700
C892        C  0.38922658  0.90907247  0.53536420    -0.40300
H893        H  0.48763474  0.99695534  0.54908911     0.12500
H894        H  0.54279971  0.04395238  0.53690971     0.12100
H895        H  0.48811355  0.98382756  0.50061709     0.11600
H896        H  0.43269330  0.93708231  0.51276146     0.11800
H897        H  0.55300386  0.04326261  0.49984457     0.14500
H898        H  0.59463634  0.04894628  0.52585675     0.13300
H899        H  0.43281836  0.93104607  0.54996966     0.11000
H900        H  0.37986899  0.91258062  0.52575665     0.13000
C901        C  0.26895222  0.81426471  0.68106963     0.19100
C902        C  0.29871402  0.85232343  0.68118330    -0.19000
C903        C  0.29209626  0.88041205  0.67615176    -0.11300
C904        C  0.25526668  0.87103633  0.67099557     0.21300
C905        C  0.22513251  0.83320651  0.67134571    -0.20600
C906        C  0.23170499  0.80518323  0.67641593    -0.11500
C907        C  0.24782838  0.89906942  0.66431859    -0.15600
C908        C  0.26921795  0.93691709  0.66635204    -0.29500
C909        C  0.27823178  0.78477973  0.68535206    -0.03700
C910        C  0.25873977  0.74867405  0.68071733    -0.40300
H911        H  0.32763447  0.86016453  0.68473320     0.12500
H912        H  0.31632662  0.90903413  0.67585403     0.12100
H913        H  0.19642267  0.82519025  0.66752721     0.11600
H914        H  0.20756921  0.77647082  0.67656722     0.11800
H915        H  0.22339753  0.88784603  0.65743153     0.14500
H916        H  0.29227377  0.94870346  0.67373989     0.13300
H917        H  0.30413556  0.79385383  0.69141431     0.11000
H918        H  0.23470356  0.74001792  0.67382501     0.13000
C919        C  0.11876908  0.96340766  0.59075497     0.19100
C920        C  0.13280795  0.93864563  0.59357921    -0.19000
C921        C  0.15707639  0.94544804  0.60452869    -0.11300
C922        C  0.16750335  0.97714742  0.61292791     0.21300
C923        C  0.15282042  0.00137827  0.61022279    -0.20600
C924        C  0.12852759  0.99451027  0.59937049    -0.11500
C925        C  0.19478828  0.98738667  0.62427204    -0.15600
C926        C  0.20434618  0.96372239  0.63012321    -0.29500
C927        C  0.09382961  0.95587777  0.57886744    -0.03700
C928        C  0.08955042  0.98300731  0.57305130    -0.40300
H929        H  0.12556688  0.91434755  0.58715228     0.12500
H930        H  0.16822993  0.92639195  0.60614667     0.12100
H931        H  0.16015127  0.02585287  0.61657222     0.11600
H932        H  0.11726617  0.01354016  0.59790936     0.11800
H933        H  0.20698951  0.01617592  0.62823267     0.14500
H934        H  0.19141633  0.93430149  0.62685977     0.13300
H935        H  0.07992765  0.92748913  0.57444750     0.11000
H936        H  0.10527828  0.01204251  0.57681022     0.13000
C937        C  0.40690153  0.47662359  0.69682056     0.19100
C938        C  0.44270848  0.48296224  0.70178152    -0.19000
C939        C  0.45166107  0.45373171  0.70174434    -0.11300
C940        C  0.42438043  0.41690619  0.69705533     0.21300
C941        C  0.38868844  0.41071995  0.69195019    -0.20600
C942        C  0.37990306  0.44008867  0.69187498    -0.11500
C943        C  0.43141177  0.38410090  0.69770432    -0.15600
C944        C  0.45849055  0.38423645  0.70569963    -0.29500
C945        C  0.39831078  0.50840704  0.69714381    -0.03700
C946        C  0.37464099  0.51070120  0.68824205    -0.40300
H947        H  0.46406946  0.51081459  0.70557323     0.12500
H948        H  0.48013417  0.46053214  0.70534567     0.12100
H949        H  0.36709783  0.38280213  0.68828092     0.11600
H950        H  0.35152550  0.43372382  0.68825697     0.11800
H951        H  0.41193849  0.35822113  0.69219656     0.14500
H952        H  0.47681702  0.40909440  0.71178289     0.13300
H953        H  0.41269023  0.53087546  0.70457174     0.11000
H954        H  0.36200980  0.48923409  0.68041965     0.13000
C955        C  0.52837387  0.30067178  0.75229067     0.19100
C956        C  0.50716626  0.27243375  0.76127494    -0.19000
C957        C  0.52093212  0.27568577  0.77410259    -0.11300
C958        C  0.55687388  0.30693691  0.77811945     0.21300
C959        C  0.57851383  0.33477368  0.76901387    -0.20600
C960        C  0.56449793  0.33168127  0.75619741    -0.11500
C961        C  0.57240160  0.31163877  0.79171077    -0.15600
C962        C  0.56160457  0.28236367  0.79967363    -0.29500
C963        C  0.51102685  0.29759073  0.73915187    -0.03700
C964        C  0.51571762  0.32809123  0.73280349    -0.40300
H965        H  0.47915345  0.24840874  0.75848935     0.12500
H966        H  0.50272081  0.25411271  0.78085879     0.12100
H967        H  0.60635890  0.35898339  0.77182662     0.11600
H968        H  0.58192781  0.35351132  0.74938370     0.11800
H969        H  0.59517341  0.33966213  0.79497116     0.14500
H970        H  0.54129953  0.25372527  0.79622003     0.13300
H971        H  0.49005144  0.26941966  0.73538841     0.11000
H972        H  0.53415258  0.35632555  0.73702634     0.13000
C973        C  0.33595013  0.12239008  0.67463332     0.19100
C974        C  0.34785818  0.13124129  0.68779494    -0.19000
C975        C  0.36592642  0.16860576  0.69258691    -0.11300
C976        C  0.37352139  0.19847523  0.68424463     0.21300
C977        C  0.36035550  0.18971571  0.67116051    -0.20600
C978        C  0.34194073  0.15202893  0.66633947    -0.11500
C979        C  0.39591526  0.23866931  0.68910376    -0.15600
C980        C  0.42422294  0.24918765  0.69823767    -0.29500
C981        C  0.31826803  0.08201610  0.67010138    -0.03700
C982        C  0.29535500  0.06738650  0.65937726    -0.40300
H983        H  0.34315351  0.10905948  0.69444615     0.12500
H984        H  0.37404667  0.17399206  0.70287696     0.12100
H985        H  0.36547800  0.21213890  0.66456746     0.11600
H986        H  0.33360181  0.14655340  0.65607940     0.11800
H987        H  0.38980782  0.25958631  0.68499749     0.14500
H988        H  0.43151463  0.22831684  0.70160213     0.13300
H989        H  0.32281711  0.06310865  0.67626498     0.11000
H990        H  0.28897529  0.08530542  0.65336921     0.13000
C991        C  0.72109961  0.10619051  0.36996550     0.19100
C992        C  0.73332219  0.09845320  0.38182238    -0.19000
C993        C  0.73838801  0.06696074  0.38278830    -0.11300
C994        C  0.73180110  0.04273422  0.37180062     0.21300
C995        C  0.72044140  0.05096932  0.35986859    -0.20600
C996        C  0.71547248  0.08250794  0.35889488    -0.11500
C997        C  0.73424162  0.00755897  0.37255518    -0.15600
C998        C  0.75450649  0.00178970  0.38191632    -0.29500
C999        C  0.71406247  0.13879763  0.36963415    -0.03700
C1000       C  0.69075524  0.14157297  0.36066407    -0.40300
H1001       H  0.73793547  0.11626416  0.39048291     0.12500
H1002       H  0.74618937  0.06118162  0.39226276     0.12100
H1003       H  0.71528858  0.03284396  0.35125617     0.11600
H1004       H  0.70737676  0.08811395  0.34944229     0.11800
H1005       H  0.71868204  0.98555496  0.36506274     0.14500
H1006       H  0.77183142  0.02402781  0.38910886     0.13300
H1007       H  0.72682935  0.16020033  0.37748614     0.11000
H1008       H  0.67639354  0.11973248  0.35306678     0.13000
C1009       C  0.84199804  0.95402643  0.42478350     0.19100
C1010       C  0.84977218  0.92460224  0.42744537    -0.19000
C1011       C  0.87001499  0.92607984  0.43895735    -0.11300
C1012       C  0.88262292  0.95694756  0.44797437     0.21300
C1013       C  0.87514673  0.98626950  0.44514197    -0.20600
C1014       C  0.85520486  0.98486157  0.43371162    -0.11500
C1015       C  0.90455279  0.96081026  0.46027109    -0.15600
C1016       C  0.90510307  0.93197835  0.46623385    -0.29500
C1017       C  0.82105088  0.95483784  0.41283232    -0.03700
C1018       C  0.79669447  0.92441946  0.40529982    -0.40300
H1019       H  0.84096959  0.90088262  0.42060816     0.12500
H1020       H  0.87625284  0.90345272  0.44059628     0.12100
H1021       H  0.88466495  0.01044567  0.45184999     0.11600
H1022       H  0.84981612  0.00800205  0.43188692     0.11800
H1023       H  0.91962391  0.98883008  0.46498116     0.14500
H1024       H  0.88897601  0.90335970  0.46210223     0.13300
H1025       H  0.82438276  0.98224589  0.41055923     0.11000
H1026       H  0.79207382  0.89646006  0.40735810     0.13000
C1027       C  0.57208134  0.43533317  0.35125276     0.19100
C1028       C  0.53734575  0.42949241  0.34538439    -0.19000
C1029       C  0.53136181  0.46007729  0.34325216    -0.11300
C1030       C  0.56031542  0.49714805  0.34686709     0.21300
C1031       C  0.59419983  0.50277203  0.35325540    -0.20600
C1032       C  0.60030324  0.47232489  0.35530768    -0.11500
C1033       C  0.55748846  0.53088695  0.34348674    -0.15600
C1034       C  0.53995359  0.53243491  0.33241401    -0.29500
C1035       C  0.57926951  0.40291547  0.35207987    -0.03700
C1036       C  0.60486707  0.40225528  0.36061088    -0.40300
H1037       H  0.51508960  0.40126874  0.34223024     0.12500
H1038       H  0.50440703  0.45471824  0.33862473     0.12100
H1039       H  0.61690621  0.53110313  0.35610671     0.11600
H1040       H  0.62789795  0.47829469  0.35954031     0.11800
H1041       H  0.57418196  0.55651442  0.34949360     0.14500
H1042       H  0.52474415  0.50751449  0.32599045     0.13300
H1043       H  0.56303086  0.37887044  0.34535005     0.11000
H1044       H  0.61954407  0.42493188  0.36792435     0.13000
C1045       C  0.45400636  0.61288378  0.25582854     0.19100
C1046       C  0.47101897  0.59089004  0.25885549    -0.19000
C1047       C  0.49066864  0.59637036  0.27077974    -0.11300
C1048       C  0.49311223  0.62357148  0.28013937     0.21300
C1049       C  0.47691844  0.64629490  0.27701430    -0.20600
C1050       C  0.45731669  0.64090609  0.26500826    -0.11500
C1051       C  0.51225129  0.62834605  0.29317335    -0.15600
C1052       C  0.51193789  0.59889693  0.29898244    -0.29500
C1053       C  0.43149925  0.60436148  0.24332466    -0.03700
C1054       C  0.42559758  0.62993402  0.23718715    -0.40300
H1055       H  0.46913585  0.56934061  0.25194206     0.12500
H1056       H  0.50406657  0.57928481  0.27259102     0.12100
H1057       H  0.47851921  0.66752848  0.28401547     0.11600
H1058       H  0.44385227  0.65790852  0.26315996     0.11800
H1059       H  0.52546724  0.65588037  0.29821441     0.14500
H1060       H  0.49625060  0.57091681  0.29430216     0.13300
H1061       H  0.42005098  0.57616561  0.23889691     0.11000
H1062       H  0.43880878  0.65882582  0.24109184     0.13000
C1063       C  0.67930411  0.80329668  0.35845023     0.19100
C1064       C  0.68338663  0.77101190  0.35900618    -0.19000
C1065       C  0.66110593  0.73932757  0.35082224    -0.11300
C1066       C  0.63359262  0.73889080  0.34195226     0.21300
C1067       C  0.63027273  0.77151146  0.34106975    -0.20600
C1068       C  0.65256900  0.80328765  0.34928104    -0.11500
C1069       C  0.60774412  0.70472750  0.33366968    -0.15600
C1070       C  0.59697278  0.66957500  0.33753837    -0.29500
C1071       C  0.70306643  0.83566297  0.36776798    -0.03700
C1072       C  0.70660099  0.87019940  0.36702056    -0.40300
H1073       H  0.70395192  0.77024158  0.36583208     0.12500
H1074       H  0.66575541  0.71535510  0.35145409     0.12100
H1075       H  0.60955720  0.77203323  0.33425171     0.11600
H1076       H  0.64788728  0.82715301  0.34850858     0.11800
H1077       H  0.59600743  0.70846167  0.32455314     0.14500
H1078       H  0.60711053  0.66573223  0.34695339     0.13300
H1079       H  0.71894048  0.83092165  0.37549863     0.11000
H1080       H  0.69197291  0.87628605  0.35927915     0.13000
C1081       C  0.85378891  0.94917175  0.09361341     0.19100
C1082       C  0.81672464  0.92132444  0.09766411    -0.19000
C1083       C  0.79943987  0.92742643  0.10878590    -0.11300
C1084       C  0.81908033  0.96167134  0.11620529     0.21300
C1085       C  0.85656638  0.98890709  0.11236865    -0.20600
C1086       C  0.87381433  0.98278942  0.10131190    -0.11500
C1087       C  0.80208785  0.97107562  0.12782317    -0.15600
C1088       C  0.76776953  0.94739289  0.13335535    -0.29500
C1089       C  0.87034040  0.94199751  0.08138234    -0.03700
C1090       C  0.90140299  0.96903827  0.07508498    -0.40300
H1091       H  0.80072430  0.89491743  0.09206217     0.12500
H1092       H  0.77062251  0.90543277  0.11131385     0.12100
H1093       H  0.87270530  0.01534140  0.11794701     0.11600
H1094       H  0.90289320  0.00460460  0.09897604     0.11800
H1095       H  0.81931671  0.99938779  0.13216899     0.14500
H1096       H  0.74997752  0.91859855  0.12958574     0.13300
H1097       H  0.85554892  0.91333988  0.07718477     0.11000
H1098       H  0.91614741  0.99807605  0.07881600     0.13000
C1099       C  0.62167033  0.84811127  0.17306790     0.19100
C1100       C  0.61651081  0.81173338  0.17457034    -0.19000
C1101       C  0.58199451  0.78279475  0.17965818    -0.11300
C1102       C  0.55127549  0.78938118  0.18306222     0.21300
C1103       C  0.55694645  0.82611726  0.18188943    -0.20600
C1104       C  0.59169099  0.85518727  0.17693482    -0.11500
C1105       C  0.51243839  0.75857168  0.18724451    -0.15600
C1106       C  0.49946769  0.72167234  0.18443733    -0.29500
C1107       C  0.65745491  0.87714484  0.16664704    -0.03700
C1108       C  0.67296704  0.91466493  0.16893929    -0.40300
H1109       H  0.63925466  0.80562248  0.17172950     0.12500
H1110       H  0.57966245  0.75540575  0.18080038     0.12100
H1111       H  0.53389942  0.83208188  0.18441962     0.11600
H1112       H  0.59431494  0.88268952  0.17567354     0.11800
H1113       H  0.49232126  0.76669850  0.19146053     0.14500
H1114       H  0.51788926  0.71314180  0.17923917     0.13300
H1115       H  0.67197801  0.86708112  0.15996733     0.11000
H1116       H  0.66038366  0.92506880  0.17626575     0.13000
C1117       C  0.81261167  0.26060578  0.27079159     0.19100
C1118       C  0.77889948  0.22878623  0.27514552    -0.19000
C1119       C  0.76136847  0.23056856  0.28681414    -0.11300
C1120       C  0.77738326  0.26445688  0.29444233     0.21300
C1121       C  0.81210437  0.29568469  0.29040581    -0.20600
C1122       C  0.82969093  0.29385832  0.27878197    -0.11500
C1123       C  0.75880298  0.26934434  0.30641186    -0.15600
C1124       C  0.72515851  0.24232938  0.31134418    -0.29500
C1125       C  0.82759706  0.25812082  0.25765099    -0.03700
C1126       C  0.85616014  0.28793794  0.25160218    -0.40300
H1127       H  0.76538541  0.20263826  0.26930707     0.12500
H1128       H  0.73502593  0.20546388  0.28952882     0.12100
H1129       H  0.82543734  0.32198008  0.29616713     0.11600
H1130       H  0.85624681  0.31889179  0.27617749     0.11800
H1131       H  0.77344131  0.29713317  0.31129928     0.14500
H1132       H  0.70965275  0.21413019  0.30690804     0.13300
H1133       H  0.81323206  0.23077002  0.25246608     0.11000
H1134       H  0.87147522  0.31565957  0.25638528     0.13000
C1135       C  0.00197386  0.38155820  0.20110584     0.19100
C1136       C  0.02263697  0.37649165  0.19081580    -0.19000
C1137       C  0.06062641  0.40482537  0.18805417    -0.11300
C1138       C  0.07855647  0.43908698  0.19550712     0.21300
C1139       C  0.05698496  0.44479969  0.20531810    -0.20600
C1140       C  0.01913238  0.41663688  0.20803120    -0.11500
C1141       C  0.11997925  0.46897911  0.19404927    -0.15600
C1142       C  0.14421795  0.46918796  0.18471870    -0.29500
C1143       C  0.96335422  0.34942813  0.20466810    -0.03700
C1144       C  0.94916659  0.34612192  0.21683578    -0.40300
H1145       H  0.00988038  0.34996746  0.18520295     0.12500
H1146       H  0.07589187  0.39905832  0.18036964     0.12100
H1147       H  0.06971604  0.47104921  0.21109733     0.11600
H1148       H  0.00367705  0.42255929  0.21562513     0.11800
H1149       H  0.13143082  0.49191115  0.20140086     0.14500
H1150       H  0.13398768  0.44729645  0.17705624     0.13300
H1151       H  0.94749821  0.32682022  0.19739760     0.11000
H1152       H  0.96563534  0.36759055  0.22435662     0.13000
C1153       C  0.82449381  0.17333816  0.19120577     0.19100
C1154       C  0.84549726  0.15938472  0.18424307    -0.19000
C1155       C  0.82652908  0.12300589  0.17843518    -0.11300
C1156       C  0.78583655  0.09996794  0.17926823     0.21300
C1157       C  0.76467138  0.11455860  0.18581483    -0.20600
C1158       C  0.78369265  0.15091790  0.19166581    -0.11500
C1159       C  0.76480270  0.06003338  0.17412984    -0.15600
C1160       C  0.77891381  0.04633621  0.16477334    -0.29500
C1161       C  0.84625269  0.21060712  0.19828930    -0.03700
C1162       C  0.83377834  0.21825962  0.20960508    -0.40300
H1163       H  0.87692420  0.17612703  0.18373686     0.12500
H1164       H  0.84414323  0.11271775  0.17375607     0.12100
H1165       H  0.73331210  0.09758165  0.18653130     0.11600
H1166       H  0.76641646  0.16123106  0.19660578     0.11800
H1167       H  0.73626488  0.04133414  0.17810212     0.14500
H1168       H  0.80622447  0.06499997  0.16010248     0.13300
H1169       H  0.87504014  0.23071051  0.19482823     0.11000
H1170       H  0.80631226  0.19721829  0.21364502     0.13000
C1171       C  0.89009790  0.33938656  0.35140150     0.19100
C1172       C  0.91782122  0.37218251  0.34524164    -0.19000
C1173       C  0.95411056  0.37677548  0.34190078    -0.11300
C1174       C  0.96331887  0.34829278  0.34450819     0.21300
C1175       C  0.93644218  0.31638855  0.35127341    -0.20600
C1176       C  0.90003874  0.31174668  0.35461487    -0.11500
C1177       C  0.00002793  0.35047320  0.33992490    -0.15600
C1178       C  0.01775227  0.36842978  0.32896774    -0.29500
C1179       C  0.85035330  0.33386438  0.35319554    -0.03700
C1180       C  0.82374782  0.30885978  0.36133597    -0.40300
H1181       H  0.91107962  0.39406033  0.34276012     0.12500
H1182       H  0.97465997  0.40248277  0.33716016     0.12100
H1183       H  0.94298696  0.29421480  0.35348452     0.11600
H1184       H  0.87938399  0.28577867  0.35917284     0.11800
H1185       H  0.01118217  0.33483206  0.34515831     0.14500
H1186       H  0.00549664  0.38232613  0.32329580     0.13300
H1187       H  0.84254068  0.35112047  0.34734042     0.11000
H1188       H  0.83128821  0.29268291  0.36781798     0.13000
C1189       C  0.19989319  0.47731561  0.25453207     0.19100
C1190       C  0.16124587  0.46645947  0.25753045    -0.19000
C1191       C  0.14392612  0.44578184  0.26869313    -0.11300
C1192       C  0.16528381  0.43612487  0.27728878     0.21300
C1193       C  0.20393218  0.44685783  0.27424911    -0.20600
C1194       C  0.22120260  0.46741736  0.26305057    -0.11500
C1195       C  0.14836818  0.41457551  0.28938272    -0.15600
C1196       C  0.11626625  0.41133231  0.29512903    -0.29500
C1197       C  0.21708692  0.49953978  0.24261101    -0.03700
C1198       C  0.24700495  0.49989647  0.23625093    -0.40300
H1199       H  0.14419306  0.47362511  0.25111051     0.12500
H1200       H  0.11372491  0.43713298  0.27036992     0.12100
H1201       H  0.22104833  0.43977100  0.28067023     0.11600
H1202       H  0.25140692  0.47610231  0.26129798     0.11800
H1203       H  0.16373826  0.40182897  0.29395445     0.14500
H1204       H  0.10129571  0.42512854  0.29112808     0.13300
H1205       H  0.20378630  0.51513391  0.23871545     0.11000
H1206       H  0.25956513  0.48324140  0.23971461     0.13000
C1207       C  0.14835587  0.08152370  0.42537532     0.19100
C1208       C  0.16996071  0.07157777  0.43368799    -0.19000
C1209       C  0.15454326  0.05403131  0.44551581    -0.11300
C1210       C  0.11744926  0.04654707  0.44929364     0.21300
C1211       C  0.09499259  0.05471071  0.44070044    -0.20600
C1212       C  0.11021853  0.07196167  0.42886266    -0.11500
C1213       C  0.10257861  0.03015527  0.46220050    -0.15600
C1214       C  0.07878941  0.03867979  0.46899893    -0.29500
C1215       C  0.16701742  0.10235065  0.41336264    -0.03700
C1216       C  0.15308865  0.12051771  0.40622147    -0.40300
H1217       H  0.19919317  0.07811503  0.43115721     0.12500
H1218       H  0.17202292  0.04730605  0.45189665     0.12100
H1219       H  0.06548532  0.04755700  0.44305090     0.11600
H1220       H  0.09172743  0.07742102  0.42256628     0.11800
H1221       H  0.11202582  0.01156696  0.46627818     0.14500
H1222       H  0.07077279  0.05857075  0.46515300     0.13300
H1223       H  0.19476870  0.10473382  0.41075889     0.11000
H1224       H  0.12624759  0.11996247  0.40874755     0.13000
C1225       C  0.40972305  0.21428848  0.36905476     0.19100
C1226       C  0.39144605  0.20768144  0.38123631    -0.19000
C1227       C  0.35499354  0.20481957  0.38238661    -0.11300
C1228       C  0.33585357  0.20818411  0.37131129     0.21300
C1229       C  0.35422846  0.21541253  0.35917210    -0.20600
C1230       C  0.39061936  0.21795068  0.35797948    -0.11500
C1231       C  0.29643568  0.20353122  0.37228112    -0.15600
C1232       C  0.27005867  0.17757040  0.38011245    -0.29500
C1233       C  0.44871955  0.21754629  0.36846454    -0.03700
C1234       C  0.47346728  0.23367152  0.35858058    -0.40300
H1235       H  0.40555780  0.20502311  0.38992963     0.12500
H1236       H  0.34192481  0.20023135  0.39197295     0.12100
H1237       H  0.33990673  0.21804499  0.35053606     0.11600
H1238       H  0.40306399  0.22213290  0.34832990     0.11800
H1239       H  0.28882518  0.22072419  0.36632060     0.14500
H1240       H  0.27752124  0.15917975  0.38543702     0.13300
H1241       H  0.45843221  0.20861693  0.37694322     0.11000
H1242       H  0.46539389  0.24460153  0.35029890     0.13000
C1243       C  0.16455723  0.25552555  0.35803015     0.19100
C1244       C  0.16734091  0.26198791  0.34454643    -0.19000
C1245       C  0.14940633  0.28051781  0.33888657    -0.11300
C1246       C  0.12890253  0.29369329  0.34668498     0.21300
C1247       C  0.12635932  0.28740022  0.36018879    -0.20600
C1248       C  0.14422078  0.26882284  0.36583563    -0.11500
C1249       C  0.10930903  0.31342327  0.34104958    -0.15600
C1250       C  0.12096214  0.33273957  0.32991168    -0.29500
C1251       C  0.18267706  0.23453887  0.36370229    -0.03700
C1252       C  0.16690824  0.21194835  0.37392787    -0.40300
H1253       H  0.18267501  0.25188791  0.33832609     0.12500
H1254       H  0.15105975  0.28370292  0.32837803     0.12100
H1255       H  0.11083355  0.29725696  0.36642060     0.11600
H1256       H  0.14237179  0.26528002  0.37633576     0.11800
H1257       H  0.08554400  0.31315544  0.34647694     0.14500
H1258       H  0.14604685  0.33499993  0.32481033     0.13300
H1259       H  0.20792281  0.23596295  0.35894505     0.11000
H1260       H  0.14008736  0.20850625  0.37805441     0.13000
C1261       C  0.65659846  0.87615603  0.03640915     0.19100
C1262       C  0.68552191  0.90716420  0.02975007    -0.19000
C1263       C  0.72254445  0.91124781  0.02796564    -0.11300
C1264       C  0.73128249  0.88399422  0.03268049     0.21300
C1265       C  0.70189615  0.85236830  0.03891027    -0.20600
C1266       C  0.66493338  0.84822609  0.04064164    -0.11500
C1267       C  0.77093986  0.88828863  0.03195106    -0.15600
C1268       C  0.79802042  0.91017184  0.02329149    -0.29500
C1269       C  0.61845662  0.87410985  0.03895836    -0.03700
C1270       C  0.59527330  0.85468777  0.04891463    -0.40300
H1271       H  0.67985646  0.92894545  0.02627746     0.12500
H1272       H  0.74443482  0.93640617  0.02330534     0.12100
H1273       H  0.70762143  0.83076661  0.04252777     0.11600
H1274       H  0.64310271  0.82306883  0.04531758     0.11800
H1275       H  0.77785443  0.87227071  0.03875606     0.14500
H1276       H  0.79110163  0.92505273  0.01603763     0.13300
H1277       H  0.61027268  0.89072592  0.03290831     0.11000
H1278       H  0.60405073  0.83960312  0.05545989     0.13000
C1279       C  0.42158151  0.73410316  0.11851153     0.19100
C1280       C  0.40368596  0.73949389  0.10758863    -0.19000
C1281       C  0.42577003  0.75896056  0.09683300    -0.11300
C1282       C  0.46653692  0.77430325  0.09693418     0.21300
C1283       C  0.48445581  0.76945152  0.10799605    -0.20600
C1284       C  0.46231945  0.74977501  0.11870997    -0.11500
C1285       C  0.49106954  0.79478966  0.08562528    -0.15600
C1286       C  0.47981083  0.81145208  0.07679008    -0.29500
C1287       C  0.39721511  0.71158667  0.12949180    -0.03700
C1288       C  0.40663862  0.68943738  0.13628429    -0.40300
H1289       H  0.37238634  0.72763552  0.10721724     0.12500
H1290       H  0.41048597  0.76095600  0.08838083     0.12100
H1291       H  0.51572136  0.78107119  0.10837461     0.11600
H1292       H  0.47720807  0.74708383  0.12716585     0.11800
H1293       H  0.51968918  0.79740345  0.08482893     0.14500
H1294       H  0.45238986  0.81109272  0.07793643     0.13300
H1295       H  0.37045179  0.71188439  0.13160258     0.11000
H1296       H  0.43215285  0.68752600  0.13353104     0.13000
C1297       C  0.49552693  0.09431126  0.93724349     0.19100
C1298       C  0.49375711  0.12681980  0.93406907    -0.19000
C1299       C  0.51616130  0.14968552  0.92394347    -0.11300
C1300       C  0.54067750  0.14045248  0.91660775     0.21300
C1301       C  0.54283486  0.10825985  0.91992614    -0.20600
C1302       C  0.52058027  0.08549811  0.93015105    -0.11500
C1303       C  0.56514661  0.16443965  0.90578261    -0.15600
C1304       C  0.55671454  0.18816384  0.89946884    -0.29500
C1305       C  0.47399942  0.07070629  0.94848076    -0.03700
C1306       C  0.44173137  0.06910968  0.95356432    -0.40300
H1307       H  0.47619452  0.13555956  0.93965940     0.12500
H1308       H  0.51487238  0.17514893  0.92223513     0.12100
H1309       H  0.56178941  0.10069626  0.91459481     0.11600
H1310       H  0.52299676  0.06094165  0.93254823     0.11800
H1311       H  0.59015067  0.16195025  0.90278000     0.14500
H1312       H  0.53068365  0.18934336  0.90193970     0.13300
H1313       H  0.48543968  0.05393849  0.95274821     0.11000
H1314       H  0.42857423  0.08401303  0.94906752     0.13000
C1315       C  0.20860536  0.99540780  0.00875079     0.19100
C1316       C  0.23584184  0.02725043  0.00203028    -0.19000
C1317       C  0.27144024  0.03090937  0.99821122    -0.11300
C1318       C  0.28054022  0.00235090  0.00082542     0.21300
C1319       C  0.25371185  0.97086434  0.00784654    -0.20600
C1320       C  0.21801246  0.96725833  0.01172574    -0.11500
C1321       C  0.31767289  0.00469685  0.99642727    -0.15600
C1322       C  0.33785817  0.02500664  0.98609412    -0.29500
C1323       C  0.16989092  0.99165260  0.01149071    -0.03700
C1324       C  0.14472964  0.96897144  0.02051495    -0.40300
H1325       H  0.22944833  0.04942144  0.99964397     0.12500
H1326       H  0.29171997  0.05629991  0.99327078     0.12100
H1327       H  0.25999162  0.94851831  0.01005939     0.11600
H1328       H  0.19752449  0.94191645  0.01665269     0.11800
H1329       H  0.32772449  0.98787646  0.00148660     0.14500
H1330       H  0.32689371  0.04009451  0.98047268     0.13300
H1331       H  0.16169648  0.00857853  0.00561120     0.11000
H1332       H  0.15276479  0.95301071  0.02692735     0.13000
C1333       C  0.45777973  0.96579531  0.00903524     0.19100
C1334       C  0.44808793  0.95584389  0.02210409    -0.19000
C1335       C  0.46564829  0.93916237  0.02909296    -0.11300
C1336       C  0.49307412  0.93135155  0.02308940     0.21300
C1337       C  0.50373623  0.94228839  0.01015510    -0.20600
C1338       C  0.48630601  0.95922361  0.00315865    -0.11500
C1339       C  0.51110722  0.91210537  0.03007559    -0.15600
C1340       C  0.49381011  0.88989588  0.04026261    -0.29500
C1341       C  0.43705755  0.98254426  0.00206648    -0.03700
C1342       C  0.44475387  0.99486842  0.98976736    -0.40300
H1343       H  0.42676250  0.96101971  0.02697233     0.12500
H1344       H  0.45780445  0.93293733  0.03924045     0.12100
H1345       H  0.52514947  0.93710170  0.00535967     0.11600
H1346       H  0.49523080  0.96643569  0.99316453     0.11800
H1347       H  0.53842242  0.91527045  0.02651702     0.14500
H1348       H  0.46552543  0.88488960  0.04342357     0.13300
H1349       H  0.41470076  0.98525657  0.00737458     0.11000
H1350       H  0.46755249  0.99379046  0.98426007     0.13000
C1351       C  0.41880075  0.62385562  0.61327586     0.19100
C1352       C  0.43427945  0.65489807  0.60499447    -0.19000
C1353       C  0.44933808  0.65281750  0.59284488    -0.11300
C1354       C  0.44933183  0.61955785  0.58879163     0.21300
C1355       C  0.43236652  0.58798021  0.59677558    -0.20600
C1356       C  0.41752680  0.59009714  0.60896199    -0.11500
C1357       C  0.46805269  0.61708906  0.57659129    -0.15600
C1358       C  0.49911300  0.64716273  0.57159124    -0.29500
C1359       C  0.40572026  0.62866320  0.62642285    -0.03700
C1360       C  0.38511164  0.60018006  0.63457089    -0.40300
H1361       H  0.43518746  0.68107569  0.60800584     0.12500
H1362       H  0.46107908  0.67728290  0.58671323     0.12100
H1363       H  0.43193063  0.56200468  0.59379038     0.11600
H1364       H  0.40631004  0.56555301  0.61500253     0.11800
H1365       H  0.45836785  0.58895002  0.57236423     0.14500
H1366       H  0.51045891  0.67521277  0.57608816     0.13300
H1367       H  0.41271871  0.65724606  0.62940304     0.11000
H1368       H  0.37568922  0.57102317  0.63172640     0.13000
C1369       C  0.75114486  0.79989063  0.52969336     0.19100
C1370       C  0.73500583  0.79110523  0.54222262    -0.19000
C1371       C  0.69830575  0.75963780  0.54400016    -0.11300
C1372       C  0.67670601  0.73629219  0.53323232     0.21300
C1373       C  0.69278038  0.74475001  0.52070520    -0.20600
C1374       C  0.72945995  0.77649044  0.51889481    -0.11500
C1375       C  0.63786224  0.70255449  0.53501257    -0.15600
C1376       C  0.61330900  0.70272570  0.54404765    -0.29500
C1377       C  0.79073672  0.83331447  0.52845547    -0.03700
C1378       C  0.81402059  0.83808896  0.51823311    -0.40300
H1379       H  0.75110501  0.80836967  0.55071910     0.12500
H1380       H  0.68720710  0.75322974  0.55385690     0.12100
H1381       H  0.67664980  0.72709901  0.51228342     0.11600
H1382       H  0.74028987  0.78262503  0.50902157     0.11800
H1383       H  0.62931937  0.67752824  0.52876904     0.14500
H1384       H  0.62109426  0.72869566  0.54963287     0.13300
H1385       H  0.80233589  0.85318813  0.53678655     0.11000
H1386       H  0.80410041  0.81735702  0.51018068     0.13000
C1387       C  0.30608404  0.19050184  0.51167935     0.19100
C1388       C  0.29616412  0.15233599  0.51210106    -0.19000
C1389       C  0.26003411  0.12519395  0.51679301    -0.11300
C1390       C  0.23243257  0.13551938  0.52086287     0.21300
C1391       C  0.24282033  0.17391603  0.52076548    -0.20600
C1392       C  0.27919161  0.20115871  0.51620080    -0.11500
C1393       C  0.19209489  0.10703884  0.52463089    -0.15600
C1394       C  0.17504017  0.07052919  0.52053074    -0.29500
C1395       C  0.34340942  0.21779335  0.50561161    -0.03700
C1396       C  0.36242055  0.25520386  0.50852160    -0.40300
H1397       H  0.31641854  0.14343520  0.50871825     0.12500
H1398       H  0.25401702  0.09624478  0.51712401     0.12100
H1399       H  0.22222010  0.18271558  0.52382105     0.11600
H1400       H  0.28544880  0.23019143  0.51574946     0.11800
H1401       H  0.17464453  0.11712486  0.52968654     0.14500
H1402       H  0.19113393  0.06068272  0.51457995     0.13300
H1403       H  0.35578792  0.20646961  0.49852473     0.11000
H1404       H  0.35185724  0.26665288  0.51618992     0.13000
C1405       C  0.52862026  0.28553496  0.42966653     0.19100
C1406       C  0.49057035  0.25982242  0.43350676    -0.19000
C1407       C  0.47503029  0.26693910  0.44485268    -0.11300
C1408       C  0.49758125  0.29990931  0.45264139     0.21300
C1409       C  0.53551672  0.32553988  0.44876554    -0.20600
C1410       C  0.55105927  0.31835988  0.43752327    -0.11500
C1411       C  0.48309901  0.30945250  0.46474905    -0.15600
C1412       C  0.45213357  0.28463344  0.47156481    -0.29500
C1413       C  0.54429957  0.27692799  0.41762897    -0.03700
C1414       C  0.57457969  0.30372323  0.41107966    -0.40300
H1415       H  0.47269506  0.23430423  0.42764435     0.12500
H1416       H  0.44536104  0.24684120  0.44732751     0.12100
H1417       H  0.55355215  0.35109829  0.45459229     0.11600
H1418       H  0.58093506  0.33835856  0.43526443     0.11800
H1419       H  0.49991465  0.33852461  0.46848463     0.14500
H1420       H  0.43535469  0.25511624  0.46839046     0.13300
H1421       H  0.52992483  0.24776579  0.41390399     0.11000
H1422       H  0.58823491  0.33320387  0.41431541     0.13000
C1423       C  0.52137144  0.51496527  0.52770037     0.19100
C1424       C  0.52124297  0.50559911  0.51438596    -0.19000
C1425       C  0.50380788  0.46763742  0.51010738    -0.11300
C1426       C  0.48677397  0.43831570  0.51915689     0.21300
C1427       C  0.48804428  0.44785291  0.53251962    -0.20600
C1428       C  0.50538867  0.48573213  0.53677720    -0.11500
C1429       C  0.46565886  0.39762792  0.51500483    -0.15600
C1430       C  0.47230494  0.38451771  0.50364389    -0.29500
C1431       C  0.53679284  0.55515951  0.53189767    -0.03700
C1432       C  0.51970265  0.56438241  0.54153719    -0.40300
H1433       H  0.53332493  0.52764098  0.50723110     0.12500
H1434       H  0.50260027  0.46152617  0.49968612     0.12100
H1435       H  0.47532106  0.42588751  0.53968914     0.11600
H1436       H  0.50602795  0.49207035  0.54717736     0.11800
H1437       H  0.44427593  0.37770516  0.52165961     0.14500
H1438       H  0.49515964  0.40360937  0.49724173     0.13300
H1439       H  0.56052798  0.57727196  0.52650827     0.11000
H1440       H  0.49420222  0.54209915  0.54620224     0.13000
C1441       C  0.77437787  0.42521573  0.78782694     0.19100
C1442       C  0.81473823  0.44590752  0.78640694    -0.19000
C1443       C  0.83065941  0.47040762  0.77605278    -0.11300
C1444       C  0.80623092  0.47369587  0.76676530     0.21300
C1445       C  0.76582193  0.45270801  0.76815182    -0.20600
C1446       C  0.74992676  0.42836347  0.77854374    -0.11500
C1447       C  0.82208368  0.49889553  0.75558430    -0.15600
C1448       C  0.85620374  0.50692661  0.75030616    -0.29500
C1449       C  0.75829588  0.40135361  0.79927498    -0.03700
C1450       C  0.72725205  0.39897526  0.80536289    -0.40300
H1451       H  0.83393571  0.44395227  0.79353312     0.12500
H1452       H  0.86202478  0.48720199  0.77552958     0.12100
H1453       H  0.74655759  0.45483167  0.76110031     0.11600
H1454       H  0.71855065  0.41191898  0.77927832     0.11800
H1455       H  0.80467677  0.50994839  0.75133221     0.14500
H1456       H  0.87288969  0.49454962  0.75408427     0.13300
H1457       H  0.77332889  0.38734160  0.80313434     0.11000
H1458       H  0.71399911  0.41512225  0.80194351     0.13000
C1459       C  0.08878811  0.58557246  0.70324307     0.19100
C1460       C  0.08338819  0.60076975  0.71502865    -0.19000
C1461       C  0.04926542  0.60212632  0.71713881    -0.11300
C1462       C  0.01935958  0.58769339  0.70755803     0.21300
C1463       C  0.02512879  0.57360385  0.69559099    -0.20600
C1464       C  0.05939949  0.57226838  0.69345744    -0.11500
C1465       C  0.98103179  0.58456429  0.71028838    -0.15600
C1466       C  0.96575875  0.57548145  0.72226496    -0.29500
C1467       C  0.12539771  0.58414861  0.70166455    -0.03700
C1468       C  0.14035971  0.58301902  0.68995236    -0.40300
H1469       H  0.10568075  0.61162962  0.72266158     0.12500
H1470       H  0.04617052  0.61414199  0.72634870     0.12100
H1471       H  0.00244890  0.56223081  0.68809195     0.11600
H1472       H  0.06210979  0.55979141  0.68431398     0.11800
H1473       H  0.96350164  0.58528135  0.70221688     0.14500
H1474       H  0.98189332  0.57082509  0.72991974     0.13300
H1475       H  0.14255633  0.58775467  0.71046883     0.11000
H1476       H  0.12556690  0.58292979  0.68098643     0.13000
C1477       C  0.63263309  0.70656035  0.66687308     0.19100
C1478       C  0.61717077  0.70170113  0.67951289    -0.19000
C1479       C  0.58099420  0.69911604  0.68164574    -0.11300
C1480       C  0.55893142  0.70075904  0.67108899     0.21300
C1481       C  0.57484488  0.70657453  0.65849075    -0.20600
C1482       C  0.61109284  0.70926323  0.65636214    -0.11500
C1483       C  0.51914859  0.69588390  0.67267942    -0.15600
C1484       C  0.49684235  0.68034869  0.68322343    -0.29500
C1485       C  0.67020783  0.70681471  0.66505975    -0.03700
C1486       C  0.69239099  0.71976387  0.65434769    -0.40300
H1487       H  0.63312636  0.69973884  0.68780643     0.12500
H1488       H  0.57075569  0.69592193  0.69159791     0.12100
H1489       H  0.55869106  0.70808474  0.65017151     0.11600
H1490       H  0.62129168  0.71225273  0.64640517     0.11800
H1491       H  0.50685732  0.70325026  0.66449210     0.14500
H1492       H  0.50769865  0.67104727  0.69124272     0.13300
H1493       H  0.68013210  0.69612650  0.67296657     0.11000
H1494       H  0.68407675  0.73212569  0.64657338     0.13000
C1495       C  0.87914379  0.83010982  0.58844804     0.19100
C1496       C  0.87786471  0.79731891  0.59302580    -0.19000
C1497       C  0.85194063  0.77655814  0.60285071    -0.11300
C1498       C  0.82711045  0.78860196  0.60836481     0.21300
C1499       C  0.82879500  0.82160078  0.60391415    -0.20600
C1500       C  0.85491146  0.84251239  0.59422674    -0.11500
C1501       C  0.79966552  0.76805555  0.61894629    -0.15600
C1502       C  0.80733045  0.74888858  0.62782810    -0.29500
C1503       C  0.90531594  0.85035358  0.57749042    -0.03700
C1504       C  0.89766573  0.87143129  0.56941243    -0.40300
H1505       H  0.89633157  0.78729391  0.58878791     0.12500
H1506       H  0.85092714  0.75080541  0.60589876     0.12100
H1507       H  0.81033885  0.83166179  0.60813846     0.11600
H1508       H  0.85614285  0.86854239  0.59143767     0.11800
H1509       H  0.77428941  0.77150952  0.62011523     0.14500
H1510       H  0.83385001  0.74725813  0.62718554     0.13300
H1511       H  0.93007454  0.84630726  0.57563406     0.11000
H1512       H  0.87181675  0.87388892  0.57078426     0.13000
C1513       C  0.83876076  0.63016442  0.70252810     0.19100
C1514       C  0.85946814  0.66473413  0.69624307    -0.19000
C1515       C  0.83984811  0.68007069  0.68967966    -0.11300
C1516       C  0.79890170  0.66088655  0.68911198     0.21300
C1517       C  0.77801188  0.62740680  0.69595793    -0.20600
C1518       C  0.79766069  0.61188265  0.70251343    -0.11500
C1519       C  0.77802807  0.67411988  0.68057086    -0.15600
C1520       C  0.79227739  0.68730735  0.66874162    -0.29500
C1521       C  0.86128716  0.61379355  0.70845683    -0.03700
C1522       C  0.84617935  0.58549126  0.71692472    -0.40300
H1523       H  0.89100968  0.67965987  0.69620998     0.12500
H1524       H  0.85677523  0.70661459  0.68479284     0.12100
H1525       H  0.74647041  0.61226766  0.69567210     0.11600
H1526       H  0.78027884  0.58494902  0.70705179     0.11800
H1527       H  0.75038575  0.67117707  0.68362812     0.14500
H1528       H  0.81867425  0.68759038  0.66559999     0.13300
H1529       H  0.89186064  0.62622999  0.70599248     0.11000
H1530       H  0.81639665  0.57386976  0.72011699     0.13000
C1531       C  0.41025298  0.12983573  0.86326725     0.19100
C1532       C  0.39247911  0.12635280  0.87543177    -0.19000
C1533       C  0.35711562  0.09431374  0.87812610    -0.11300
C1534       C  0.33832436  0.06495835  0.86860626     0.21300
C1535       C  0.35564337  0.06869451  0.85632704    -0.20600
C1536       C  0.39115390  0.10083804  0.85362328    -0.11500
C1537       C  0.30239162  0.02901155  0.87146735    -0.15600
C1538       C  0.27899423  0.02535685  0.88155343    -0.29500
C1539       C  0.44907584  0.16365200  0.86143155    -0.03700
C1540       C  0.47255123  0.16821475  0.85127470    -0.40300
H1541       H  0.40654382  0.14812362  0.88306207     0.12500
H1542       H  0.34564294  0.09233147  0.88786002     0.12100
H1543       H  0.34184712  0.04644301  0.84883869     0.11600
H1544       H  0.40327927  0.10240201  0.84402813     0.11800
H1545       H  0.29550647  0.00441915  0.86518503     0.14500
H1546       H  0.28413166  0.04975861  0.88759596     0.13300
H1547       H  0.45974848  0.18510012  0.86930423     0.11000
H1548       H  0.46357155  0.14712887  0.84337555     0.13000
C1549       C  0.09432189  0.92984318  0.95387254     0.19100
C1550       C  0.13260683  0.95745351  0.95102346    -0.19000
C1551       C  0.15044767  0.95476928  0.93955833    -0.11300
C1552       C  0.13023468  0.92452126  0.93043918     0.21300
C1553       C  0.09228383  0.89624685  0.93338966    -0.20600
C1554       C  0.07432582  0.89890415  0.94493293    -0.11500
C1555       C  0.14836692  0.92191849  0.91791218    -0.15600
C1556       C  0.17577810  0.95305305  0.91206789    -0.29500
C1557       C  0.07674201  0.93555161  0.96607823    -0.03700
C1558       C  0.04282218  0.90948030  0.97122250    -0.40300
H1559       H  0.14895566  0.98137754  0.95773288     0.12500
H1560       H  0.18029751  0.97636538  0.93798293     0.12100
H1561       H  0.07618400  0.87245709  0.92660844     0.11600
H1562       H  0.04470180  0.87704452  0.94659945     0.11800
H1563       H  0.13840064  0.89417772  0.91329909     0.14500
H1564       H  0.18411499  0.98083495  0.91631010     0.13300
H1565       H  0.09309926  0.96284163  0.97121162     0.11000
H1566       H  0.02625738  0.88152415  0.96662925     0.13000
C1567       C  0.88924428  0.46015208  0.84262167     0.19100
C1568       C  0.90506994  0.46681799  0.82999138    -0.19000
C1569       C  0.94118319  0.49863558  0.82757270    -0.11300
C1570       C  0.96266645  0.52448034  0.83782769     0.21300
C1571       C  0.94704555  0.51759810  0.85049879    -0.20600
C1572       C  0.91087860  0.48579785  0.85291202    -0.11500
C1573       C  0.00078332  0.55939265  0.83583204    -0.15600
C1574       C  0.02277061  0.56678413  0.82499272    -0.29500
C1575       C  0.85008461  0.42635386  0.84444020    -0.03700
C1576       C  0.82656831  0.42183716  0.85464747    -0.40300
H1577       H  0.88905030  0.44760396  0.82186591     0.12500
H1578       H  0.95156789  0.50299007  0.81762650     0.12100
H1579       H  0.96295349  0.53694650  0.85860913     0.11600
H1580       H  0.90032618  0.48143932  0.86284333     0.11800
H1581       H  0.01177707  0.57986105  0.84400198     0.14500
H1582       H  0.01375518  0.54649904  0.81682739     0.13300
H1583       H  0.83903604  0.40528040  0.83645365     0.11000
H1584       H  0.83608814  0.44304712  0.86253971     0.13000
C1585       C  0.16372122  0.63446437  0.78015469     0.19100
C1586       C  0.15622456  0.64230587  0.76751106    -0.19000
C1587       C  0.18011794  0.64453661  0.75706496    -0.11300
C1588       C  0.21127809  0.63779722  0.75901126     0.21300
C1589       C  0.21863895  0.62962527  0.77163304    -0.20600
C1590       C  0.19548147  0.62861313  0.78218073    -0.11500
C1591       C  0.23346556  0.63514865  0.74772652    -0.15600
C1592       C  0.24559256  0.65980795  0.73790843    -0.29500
C1593       C  0.13641646  0.62981835  0.79084818    -0.03700
C1594       C  0.14854697  0.64349375  0.80312047    -0.40300
H1595       H  0.13163685  0.64645548  0.76570586     0.12500
H1596       H  0.17322473  0.64990135  0.74735590     0.12100
H1597       H  0.24210269  0.62368361  0.77329173     0.11600
H1598       H  0.20140764  0.62175815  0.79179128     0.11800
H1599       H  0.23968133  0.61193057  0.74744799     0.14500
H1600       H  0.24253912  0.68490040  0.73865308     0.13300
H1601       H  0.10557703  0.61642831  0.78838866     0.11000
H1602       H  0.17952845  0.66017881  0.80534196     0.13000
C1603       C  0.16701570  0.81996592  0.86867256     0.19100
C1604       C  0.12916906  0.78987151  0.86639350    -0.19000
C1605       C  0.12262165  0.75909855  0.85822232    -0.11300
C1606       C  0.15403882  0.75744805  0.85236004     0.21300
C1607       C  0.19196404  0.78728408  0.85483992    -0.20600
C1608       C  0.19848285  0.81811381  0.86298125    -0.11500
C1609       C  0.14800965  0.72618150  0.84306548    -0.15600
C1610       C  0.11609296  0.69172939  0.84322683    -0.29500
C1611       C  0.17286222  0.85310389  0.87688032    -0.03700
C1612       C  0.20189218  0.88819504  0.87460958    -0.40300
H1613       H  0.10449883  0.79070921  0.87063571     0.12500
H1614       H  0.09281549  0.73737159  0.85623478     0.12100
H1615       H  0.21662687  0.78674325  0.85045634     0.11600
H1616       H  0.22819248  0.84034033  0.86484042     0.11800
H1617       H  0.17023906  0.73187100  0.83581694     0.14500
H1618       H  0.09466480  0.68519792  0.85081932     0.13300
H1619       H  0.15180833  0.84886119  0.88442605     0.11000
H1620       H  0.22129504  0.89269516  0.86647969     0.13000
C1621       C  0.51887163  0.14624660  0.29223191     0.19100
C1622       C  0.50403114  0.10715648  0.29027883    -0.19000
C1623       C  0.48290166  0.08843213  0.27889012    -0.11300
C1624       C  0.47666967  0.10865850  0.26909553     0.21300
C1625       C  0.49098386  0.14762759  0.27113803    -0.20600
C1626       C  0.51213489  0.16636688  0.28252668    -0.11500
C1627       C  0.45516806  0.09020010  0.25670475    -0.15600
C1628       C  0.45186120  0.05786106  0.25160525    -0.29500
C1629       C  0.54234745  0.16502559  0.30426546    -0.03700
C1630       C  0.54854761  0.19862619  0.30922153    -0.40300
H1631       H  0.50867768  0.09098077  0.29762860     0.12500
H1632       H  0.47125536  0.05815383  0.27790538     0.12100
H1633       H  0.48647117  0.16381361  0.26376077     0.11600
H1634       H  0.52385322  0.19665268  0.28348239     0.11800
H1635       H  0.44303141  0.10472923  0.25130723     0.14500
H1636       H  0.46538965  0.04386059  0.25648874     0.13300
H1637       H  0.55416968  0.14986977  0.30945468     0.11000
H1638       H  0.53539039  0.21339247  0.30463096     0.13000
C1639       C  0.38958031  0.90044444  0.20366001     0.19100
C1640       C  0.35646750  0.87135938  0.19720891    -0.19000
C1641       C  0.35336089  0.83595478  0.19455358    -0.11300
C1642       C  0.38368057  0.82916121  0.19816743     0.21300
C1643       C  0.41724963  0.85866803  0.20423924    -0.20600
C1644       C  0.42041355  0.89400967  0.20683277    -0.11500
C1645       C  0.38039730  0.79118895  0.19656264    -0.15600
C1646       C  0.35823477  0.76533673  0.18722647    -0.29500
C1647       C  0.39083822  0.93671770  0.20734118    -0.03700
C1648       C  0.40975006  0.95690652  0.21822644    -0.40300
H1649       H  0.33237401  0.87561238  0.19463413     0.12500
H1650       H  0.32666576  0.81367128  0.19011434     0.12100
H1651       H  0.44108857  0.85428127  0.20705863     0.11600
H1652       H  0.44699787  0.91615076  0.21138806     0.11800
H1653       H  0.39733321  0.78452897  0.20327915     0.14500
H1654       H  0.34280605  0.77238047  0.18002675     0.13300
H1655       H  0.37393846  0.94559482  0.20151891     0.11000
H1656       H  0.42451959  0.94664950  0.22448236     0.13000
C1657       C  0.10928093  0.05622994  0.09209643     0.19100
C1658       C  0.10490692  0.08294529  0.09983061    -0.19000
C1659       C  0.12717125  0.09891661  0.11131813    -0.11300
C1660       C  0.15474717  0.08872661  0.11525634     0.21300
C1661       C  0.15949840  0.06245984  0.10739435    -0.20600
C1662       C  0.13727626  0.04652407  0.09593762    -0.11500
C1663       C  0.17878877  0.10381329  0.12750087    -0.15600
C1664       C  0.18247659  0.13324192  0.13504019    -0.29500
C1665       C  0.08457019  0.03976674  0.08005094    -0.03700
C1666       C  0.07785553  0.00719813  0.07393839    -0.40300
H1667       H  0.08373453  0.09113039  0.09706576     0.12500
H1668       H  0.12212878  0.11867083  0.11709287     0.12100
H1669       H  0.18069277  0.05424823  0.11010698     0.11600
H1670       H  0.14262378  0.02705900  0.09010051     0.11800
H1671       H  0.19544244  0.09031330  0.13024628     0.14500
H1672       H  0.16771527  0.14859486  0.13240595     0.13300
H1673       H  0.07026287  0.05460680  0.07631358     0.11000
H1674       H  0.09067306  0.99111392  0.07770830     0.13000
C1675       C  0.24928212  0.28825909  0.17493956     0.19100
C1676       C  0.22157932  0.29959101  0.17726086    -0.19000
C1677       C  0.23269054  0.33552235  0.18270961    -0.11300
C1678       C  0.27211502  0.36146394  0.18570406     0.21300
C1679       C  0.29962470  0.34961708  0.18386282    -0.20600
C1680       C  0.28846735  0.31353754  0.17847001    -0.11500
C1681       C  0.28564859  0.40173752  0.18974635    -0.15600
C1682       C  0.26744355  0.41973552  0.18524888    -0.29500
C1683       C  0.23656026  0.25074582  0.16829375    -0.03700
C1684       C  0.25572043  0.23144742  0.16965497    -0.40300
H1685       H  0.19120198  0.28064294  0.17475512     0.12500
H1686       H  0.21032955  0.34302016  0.18439498     0.12100
H1687       H  0.33012524  0.36893709  0.18606122     0.11600
H1688       H  0.31089960  0.30625585  0.17661563     0.11800
H1689       H  0.31327081  0.41790602  0.19498627     0.14500
H1690       H  0.24182653  0.40408123  0.17898444     0.13300
H1691       H  0.20982553  0.23804714  0.16245885     0.11000
H1692       H  0.28079470  0.24247766  0.17622970     0.13000
C1693       C  0.34279884  0.06917221  0.19518955     0.19100
C1694       C  0.31312187  0.05017020  0.18571495    -0.19000
C1695       C  0.29655245  0.06906129  0.17937645    -0.11300
C1696       C  0.30973456  0.10762774  0.18234439     0.21300
C1697       C  0.34003053  0.12672094  0.19158175    -0.20600
C1698       C  0.35660052  0.10795954  0.19784482    -0.11500
C1699       C  0.29243124  0.12917129  0.17652764    -0.15600
C1700       C  0.26654332  0.11670762  0.16649263    -0.29500
C1701       C  0.35917895  0.04812089  0.20200433    -0.03700
C1702       C  0.37706657  0.05957319  0.21379381    -0.40300
H1703       H  0.30223187  0.02042199  0.18338277     0.12500
H1704       H  0.27310244  0.05301678  0.17240975     0.12100
H1705       H  0.35105230  0.15646373  0.19398656     0.11600
H1706       H  0.38054276  0.12429026  0.20462550     0.11800
H1707       H  0.30172810  0.15715211  0.18083196     0.14500
H1708       H  0.25718583  0.08944160  0.16166410     0.13300
H1709       H  0.35564543  0.02222406  0.19736623     0.11000
H1710       H  0.37888203  0.08422400  0.21882710     0.13000
C1711       C  0.48191960  0.03779215  0.34713392     0.19100
C1712       C  0.48576778  0.01660561  0.33675672    -0.19000
C1713       C  0.45428677  0.98192607  0.33255464    -0.11300
C1714       C  0.41806819  0.96742226  0.33875759     0.21300
C1715       C  0.41468356  0.98791363  0.34946579    -0.20600
C1716       C  0.44616979  0.02259138  0.35366810    -0.11500
C1717       C  0.38263131  0.93209223  0.33421057    -0.15600
C1718       C  0.38196175  0.90816623  0.32471648    -0.29500
C1719       C  0.51525244  0.07625481  0.35015772    -0.03700
C1720       C  0.51378712  0.10206395  0.35831700    -0.40300
H1721       H  0.51299318  0.02748345  0.33158045     0.12500
H1722       H  0.45859384  0.96749492  0.32425205     0.12100
H1723       H  0.38727353  0.97732529  0.35450483     0.11600
H1724       H  0.44180449  0.03724780  0.36188827     0.11800
H1725       H  0.35545338  0.92568489  0.33889620     0.14500
H1726       H  0.40835988  0.91298754  0.31991386     0.13300
H1727       H  0.54178104  0.08456223  0.34471721     0.11000
H1728       H  0.48819953  0.09512697  0.36404777     0.13000
C1729       C  0.30891570  0.71416700  0.25546365     0.19100
C1730       C  0.33799985  0.73289385  0.26511600    -0.19000
C1731       C  0.33099283  0.74870901  0.27639917    -0.11300
C1732       C  0.29485062  0.74708851  0.27818057     0.21300
C1733       C  0.26532346  0.72738226  0.26871676    -0.20600
C1734       C  0.27226386  0.71129215  0.25743778    -0.11500
C1735       C  0.28775912  0.76667485  0.28955913    -0.15600
C1736       C  0.31709911  0.79770672  0.29545792    -0.29500
C1737       C  0.31831381  0.69897222  0.24338967    -0.03700
C1738       C  0.29107514  0.67039984  0.23587951    -0.40300
H1739       H  0.36631292  0.73521224  0.26394510     0.12500
H1740       H  0.35408711  0.76213585  0.28368877     0.12100
H1741       H  0.23718462  0.72546819  0.26984533     0.11600
H1742       H  0.24920246  0.69773706  0.25014560     0.11800
H1743       H  0.25801289  0.75694098  0.29257306     0.14500
H1744       H  0.34643569  0.80873072  0.29184217     0.13300
H1745       H  0.34880143  0.71070514  0.24091688     0.11000
H1746       H  0.26076131  0.65696721  0.23868608     0.13000
C1747       C  0.00131820  0.83681133  0.45054806     0.19100
C1748       C  0.99475303  0.84357221  0.43761803    -0.19000
C1749       C  0.99628472  0.82140980  0.42713073    -0.11300
C1750       C  0.00328451  0.79139506  0.42948940     0.21300
C1751       C  0.01018013  0.78490147  0.44239638    -0.20600
C1752       C  0.00976673  0.80769820  0.45281976    -0.11500
C1753       C  0.99917936  0.76387643  0.41893720    -0.15600
C1754       C  0.01275535  0.77384538  0.40674591    -0.29500
C1755       C  0.99609249  0.85818405  0.46161507    -0.03700
C1756       C  0.01873407  0.86903472  0.47247413    -0.40300
H1757       H  0.98788018  0.86567425  0.43566507     0.12500
H1758       H  0.99011371  0.82651724  0.41728457     0.12100
H1759       H  0.01518328  0.76163801  0.44443415     0.11600
H1760       H  0.01421637  0.80137681  0.46270609     0.11800
H1761       H  0.98529051  0.73421456  0.42146277     0.14500
H1762       H  0.02961015  0.80359551  0.40439928     0.13300
H1763       H  0.97374706  0.86614617  0.46065137     0.11000
H1764       H  0.04360782  0.86460358  0.47297675     0.13000
C1765       C  0.88687535  0.58179731  0.37722368     0.19100
C1766       C  0.87419263  0.56406158  0.36480758    -0.19000
C1767       C  0.84161220  0.52797174  0.36341928    -0.11300
C1768       C  0.82112619  0.50835652  0.37449604     0.21300
C1769       C  0.83304870  0.52642824  0.38691611    -0.20600
C1770       C  0.86575644  0.56271716  0.38831387    -0.11500
C1771       C  0.78750066  0.46909053  0.37342527    -0.15600
C1772       C  0.78327150  0.44451787  0.36357091    -0.29500
C1773       C  0.92276575  0.61958518  0.37796108    -0.03700
C1774       C  0.93338578  0.64450712  0.38819156    -0.40300
H1775       H  0.88961821  0.57824484  0.35608731     0.12500
H1776       H  0.83255458  0.51571951  0.35363577     0.12100
H1777       H  0.81758055  0.51202280  0.39559959     0.11600
H1778       H  0.87477139  0.57512978  0.39807601     0.11800
H1779       H  0.76687634  0.45946104  0.38140124     0.14500
H1780       H  0.80490731  0.45306473  0.35594917     0.13300
H1781       H  0.94057163  0.62797187  0.36924321     0.11000
H1782       H  0.91548180  0.63786975  0.39683944     0.13000
C1783       C  0.17369150  0.78795589  0.33599256     0.19100
C1784       C  0.14760121  0.75100484  0.33980895    -0.19000
C1785       C  0.11758490  0.74406677  0.34852092    -0.11300
C1786       C  0.11260824  0.77402694  0.35350929     0.21300
C1787       C  0.13786803  0.81081525  0.34932752    -0.20600
C1788       C  0.16782358  0.81772937  0.34058847    -0.11500
C1789       C  0.08335434  0.76829421  0.36373464    -0.15600
C1790       C  0.05114989  0.73469465  0.36555002    -0.29500
C1791       C  0.20748591  0.79462519  0.32769046    -0.03700
C1792       C  0.24137056  0.82749916  0.32838123    -0.40300
H1793       H  0.15134845  0.72755844  0.33642942     0.12500
H1794       H  0.09947727  0.71539575  0.35170063     0.12100
H1795       H  0.13464687  0.83438552  0.35293780     0.11600
H1796       H  0.18638824  0.84647713  0.33753679     0.11800
H1797       H  0.08880218  0.79242275  0.37004449     0.14500
H1798       H  0.04430462  0.71097032  0.35885752     0.13300
H1799       H  0.20568038  0.77107442  0.32184414     0.11000
H1800       H  0.24415340  0.85005775  0.33500180     0.13000
C1801       C  0.23632504  0.22970378  0.03876682     0.19100
C1802       C  0.19887888  0.22433412  0.03669179    -0.19000
C1803       C  0.16958746  0.19069235  0.03093595    -0.11300
C1804       C  0.17689611  0.16119248  0.02733267     0.21300
C1805       C  0.21486000  0.16724413  0.02873007    -0.20600
C1806       C  0.24435240  0.20110644  0.03446325    -0.11500
C1807       C  0.14488817  0.12315831  0.02301328    -0.15600
C1808       C  0.10886198  0.10938379  0.02779582    -0.29500
C1809       C  0.26487858  0.26420980  0.04629162    -0.03700
C1810       C  0.30351318  0.27773736  0.04643820    -0.40300
H1811       H  0.19200863  0.24601504  0.03977794     0.12500
H1812       H  0.14104198  0.18764208  0.02955134     0.12100
H1813       H  0.22125629  0.14502789  0.02596923     0.11600
H1814       H  0.27268410  0.20386617  0.03601739     0.11800
H1815       H  0.15186677  0.10479771  0.01708497     0.14500
H1816       H  0.10295563  0.12659157  0.03471329     0.13300
H1817       H  0.25338281  0.27945719  0.05191190     0.11000
H1818       H  0.31623504  0.26468844  0.04029344     0.13000
C1819       C  0.34367927  0.41693897  0.10146800     0.19100
C1820       C  0.37332257  0.43990909  0.11052613    -0.19000
C1821       C  0.36705225  0.46074662  0.12030026    -0.11300
C1822       C  0.33090443  0.45930612  0.12116930     0.21300
C1823       C  0.30089023  0.43565982  0.11232751    -0.20600
C1824       C  0.30719855  0.41480961  0.10248598    -0.11500
C1825       C  0.32320434  0.48091326  0.13149987    -0.15600
C1826       C  0.35149932  0.51310889  0.13721087    -0.29500
C1827       C  0.35331213  0.39763741  0.09084008    -0.03700
C1828       C  0.32767202  0.37119191  0.08228139    -0.40300
H1829       H  0.40163211  0.44188693  0.11002096     0.12500
H1830       H  0.39044261  0.47745599  0.12724016     0.12100
H1831       H  0.27266012  0.43380549  0.11290887     0.11600
H1832       H  0.28370124  0.39783943  0.09563204     0.11800
H1833       H  0.29316336  0.47003752  0.13440010     0.14500
H1834       H  0.38132138  0.52535916  0.13393171     0.13300
H1835       H  0.38395113  0.40612463  0.09002108     0.11000
H1836       H  0.29662745  0.36039454  0.08304588     0.13000
C1837       C  0.59280545  0.41427482  0.94621279     0.19100
C1838       C  0.56930412  0.37489893  0.94437885    -0.19000
C1839       C  0.56605586  0.35774197  0.93205650    -0.11300
C1840       C  0.58659802  0.37972115  0.92146124     0.21300
C1841       C  0.60785322  0.41933843  0.92302679    -0.20600
C1842       C  0.61068246  0.43653550  0.93527541    -0.11500
C1843       C  0.58831207  0.36076631  0.90919304    -0.15600
C1844       C  0.62256130  0.37222053  0.90334920    -0.29500
C1845       C  0.59900173  0.43085333  0.95968640    -0.03700
C1846       C  0.63016065  0.46429897  0.96318755    -0.40300
H1847       H  0.55471663  0.35722256  0.95260323     0.12500
H1848       H  0.54926707  0.32715534  0.93096164     0.12100
H1849       H  0.62295407  0.43691081  0.91483348     0.11600
H1850       H  0.62731652  0.46710763  0.93610134     0.11800
H1851       H  0.56241331  0.33511130  0.90576456     0.14500
H1852       H  0.64871613  0.39644749  0.90744930     0.13300
H1853       H  0.57852393  0.41389454  0.96713009     0.11000
H1854       H  0.65175389  0.48116198  0.95605434     0.13000
C1855       C  0.80511451  0.70312102  0.01145460     0.19100
C1856       C  0.80769578  0.68021683  0.00144023    -0.19000
C1857       C  0.77858500  0.64252184  0.99960893    -0.11300
C1858       C  0.74579752  0.62680633  0.00771639     0.21300
C1859       C  0.74378209  0.64917856  0.01803799    -0.20600
C1860       C  0.77307323  0.68694871  0.01992216    -0.11500
C1861       C  0.71360514  0.58718742  0.00574379    -0.15600
C1862       C  0.70600804  0.56870065  0.99405992    -0.29500
C1863       C  0.83651642  0.74344739  0.01254035    -0.03700
C1864       C  0.83539691  0.77000429  0.02039050    -0.40300
H1865       H  0.83230538  0.69159601  0.99491727     0.12500
H1866       H  0.78225985  0.62585206  0.99190499     0.12100
H1867       H  0.71919045  0.63754077  0.02456674     0.11600
H1868       H  0.77018036  0.70296055  0.02801514     0.11800
H1869       H  0.69472131  0.57350120  0.01395531     0.14500
H1870       H  0.72302268  0.58285309  0.98557233     0.13300
H1871       H  0.86154558  0.75188124  0.00626917     0.11000
H1872       H  0.81109765  0.76289875  0.02681484     0.13000
C1873       C  0.56288961  0.43995550  0.03023658     0.19100
C1874       C  0.54445433  0.45711897  0.03686110    -0.19000
C1875       C  0.50927465  0.43493600  0.04312775    -0.11300
C1876       C  0.49242525  0.39518842  0.04303265     0.21300
C1877       C  0.51237342  0.37840177  0.03719071    -0.20600
C1878       C  0.54751991  0.40060021  0.03092856    -0.11500
C1879       C  0.45238279  0.37040584  0.04757727    -0.15600
C1880       C  0.43563084  0.38208812  0.05651792    -0.29500
C1881       C  0.59505041  0.46287692  0.02136529    -0.03700
C1882       C  0.59670570  0.44885997  0.00949016    -0.40300
H1883       H  0.55583051  0.48740168  0.03639981     0.12500
H1884       H  0.49434904  0.44889861  0.04726013     0.12100
H1885       H  0.50002931  0.34791769  0.03706601     0.11600
H1886       H  0.56181827  0.38680783  0.02616342     0.11800
H1887       H  0.43583335  0.34218650  0.04309409     0.14500
H1888       H  0.45255539  0.40919705  0.06168450     0.13300
H1889       H  0.61377209  0.49284160  0.02374864     0.11000
H1890       H  0.57573315  0.41970433  0.00670816     0.13000
C1891       C  0.15228771  0.45943767  0.59438854     0.19100
C1892       C  0.16901329  0.49866399  0.59674733    -0.19000
C1893       C  0.18895779  0.51564395  0.60848796    -0.11300
C1894       C  0.19237632  0.49364818  0.61824680     0.21300
C1895       C  0.17656803  0.45457063  0.61579527    -0.20600
C1896       C  0.15642478  0.43748459  0.60402560    -0.11500
C1897       C  0.21320902  0.51098550  0.63086767    -0.15600
C1898       C  0.21419215  0.54177568  0.63650814    -0.29500
C1899       C  0.12847071  0.44273022  0.58221638    -0.03700
C1900       C  0.11719911  0.40783206  0.57704154    -0.40300
H1901       H  0.16639774  0.51629732  0.58949005     0.12500
H1902       H  0.20191996  0.54603342  0.60983402     0.12100
H1903       H  0.17905567  0.43708818  0.62313973     0.11600
H1904       H  0.14334173  0.40710702  0.60271119     0.11800
H1905       H  0.22737957  0.49753786  0.63575832     0.14500
H1906       H  0.19810633  0.55392263  0.63205245     0.13300
H1907       H  0.11941842  0.46051570  0.57727756     0.11000
H1908       H  0.12714519  0.38991910  0.58130867     0.13000
C1909       C  0.05673485  0.25506925  0.53663788     0.19100
C1910       C  0.08709810  0.24707258  0.53496272    -0.19000
C1911       C  0.08082879  0.21404068  0.52826830    -0.11300
C1912       C  0.04343281  0.18725778  0.52343184     0.21300
C1913       C  0.01330211  0.19591009  0.52471604    -0.20600
C1914       C  0.01977703  0.22937724  0.53124984    -0.11500
C1915       C  0.03403270  0.14899836  0.51802957    -0.15600
C1916       C  0.05640161  0.13348200  0.52059592    -0.29500
C1917       C  0.06470499  0.28993270  0.54432669    -0.03700
C1918       C  0.04508369  0.30861834  0.54245578    -0.40300
H1919       H  0.11594441  0.26656274  0.53885532     0.12500
H1920       H  0.10550449  0.20975622  0.52708067     0.12100
H1921       H  0.98425306  0.17604209  0.52108098     0.11600
H1922       H  0.99544795  0.23425797  0.53247093     0.11800
H1923       H  0.00558204  0.13120672  0.51345578     0.14500
H1924       H  0.08332395  0.14964441  0.52614302     0.13300
H1925       H  0.08915017  0.30184013  0.55121860     0.11000
H1926       H  0.02221338  0.29833327  0.53501269     0.13000
C1927       C  0.92100742  0.72035789  0.51150850     0.19100
C1928       C  0.91657336  0.70176174  0.49931873    -0.19000
C1929       C  0.91117577  0.66511971  0.49857891    -0.11300
C1930       C  0.90984063  0.64609229  0.51006640     0.21300
C1931       C  0.91542849  0.66493431  0.52222755    -0.20600
C1932       C  0.92050010  0.70149255  0.52299282    -0.11500
C1933       C  0.90150762  0.60626104  0.50957437    -0.15600
C1934       C  0.87648238  0.58129000  0.50063447    -0.29500
C1935       C  0.92588372  0.75912054  0.51172384    -0.03700
C1936       C  0.93870272  0.78279482  0.52228903    -0.40300
H1937       H  0.91723650  0.71561717  0.49031409     0.12500
H1938       H  0.90810686  0.65175377  0.48899969     0.12100
H1939       H  0.91456075  0.65083495  0.53119056     0.11600
H1940       H  0.92304352  0.71412718  0.53263956     0.11800
H1941       H  0.91415786  0.59691180  0.51705014     0.14500
H1942       H  0.86194508  0.59041149  0.49379120     0.13300
H1943       H  0.92065108  0.76926943  0.50261120     0.11000
H1944       H  0.94623821  0.77425826  0.53129475     0.13000
C1945       C  0.75005394  0.37845810  0.43483578     0.19100
C1946       C  0.73617415  0.39926879  0.44191720    -0.19000
C1947       C  0.75135248  0.41474958  0.45433590    -0.11300
C1948       C  0.78107425  0.40993933  0.45987010     0.21300
C1949       C  0.79439613  0.38847083  0.45294231    -0.20600
C1950       C  0.77933195  0.37309529  0.44049244    -0.11500
C1951       C  0.79998500  0.42803106  0.47257544    -0.15600
C1952       C  0.80395691  0.46129392  0.47687053    -0.29500
C1953       C  0.73395290  0.36411051  0.42147571    -0.03700
C1954       C  0.73766715  0.33721204  0.41473404    -0.40300
H1955       H  0.71352851  0.40367679  0.43780376     0.12500
H1956       H  0.73970629  0.43034571  0.45955089     0.12100
H1957       H  0.81742115  0.38457092  0.45701165     0.11600
H1958       H  0.79151787  0.35800987  0.43529357     0.11800
H1959       H  0.81489592  0.41581174  0.47777855     0.14500
H1960       H  0.79137260  0.47511995  0.47132996     0.21100
H1961       H  0.71715184  0.37569564  0.41713265     0.11000
H1962       H  0.75257303  0.32367265  0.41899751     0.13000
C1963       C  0.97883847  0.42878543  0.53507088     0.19100
C1964       C  0.93841983  0.41020306  0.53311530    -0.19000
C1965       C  0.92026980  0.42982291  0.52862801    -0.11300
C1966       C  0.94234429  0.46843729  0.52561308     0.21300
C1967       C  0.98272908  0.48733583  0.52792427    -0.20600
C1968       C  0.00088952  0.46772915  0.53256798    -0.11500
C1969       C  0.92409890  0.48907221  0.51963254    -0.15600
C1970       C  0.89183132  0.47081449  0.51205468    -0.29500
C1971       C  0.99705578  0.40636835  0.53925647    -0.03700
C1972       C  0.02983824  0.42130199  0.54657263    -0.40300
H1973       H  0.92076709  0.38034983  0.53510308     0.12500
H1974       H  0.88890689  0.41450035  0.52752190     0.12100
H1975       H  0.00041627  0.51703909  0.52574236     0.11600
H1976       H  0.03224481  0.48282722  0.53376761     0.11800
H1977       H  0.93894544  0.51979053  0.52061078     0.14500
H1978       H  0.87887460  0.44051632  0.51022129     0.13300
H1979       H  0.98189945  0.37619548  0.53679753     0.11000
H1980       H  0.04351772  0.45069255  0.54998248     0.13000
C1981       C  0.73370923  0.60497369  0.86822684     0.19100
C1982       C  0.75882308  0.59013187  0.86893201    -0.19000
C1983       C  0.74774334  0.55430030  0.86352325    -0.11300
C1984       C  0.71056306  0.53192866  0.85769802     0.21300
C1985       C  0.68591964  0.54733400  0.85659087    -0.20600
C1986       C  0.69732470  0.58356561  0.86182649    -0.11500
C1987       C  0.69606301  0.49180797  0.85349945    -0.15600
C1988       C  0.70783199  0.47061240  0.85979447    -0.29500
C1989       C  0.74601013  0.64257655  0.87443923    -0.03700
C1990       C  0.73805827  0.66747763  0.86888962    -0.40300
H1991       H  0.78719712  0.60642185  0.87363211     0.12500
H1992       H  0.76828472  0.54411777  0.86405783     0.12100
H1993       H  0.65726881  0.53077941  0.85210734     0.11600
H1994       H  0.67719807  0.59426189  0.86124831     0.11800
H1995       H  0.67307450  0.47871536  0.84608672     0.14500
H1996       H  0.72869120  0.48323126  0.86786149     0.13300
H1997       H  0.76417335  0.65084954  0.88324813     0.11000
H1998       H  0.72243856  0.66015010  0.85954655     0.13000
C1999       C  0.84753630  0.83278810  0.95069774     0.19100
C2000       C  0.82854976  0.79407702  0.94714898    -0.19000
C2001       C  0.81321869  0.78147074  0.93446274    -0.11300
C2002       C  0.81717883  0.80754133  0.92490979     0.21300
C2003       C  0.83606840  0.84626641  0.92851486    -0.20600
C2004       C  0.85115403  0.85881845  0.94122344    -0.11500
C2005       C  0.80171320  0.79589939  0.91119701    -0.15600
C2006       C  0.79026890  0.76142085  0.90565201    -0.29500
C2007       C  0.86552503  0.84514893  0.96402624    -0.03700
C2008       C  0.87227294  0.87766554  0.97016524    -0.40300
H2009       H  0.82547873  0.77344527  0.95425019     0.12500
H2010       H  0.79814763  0.75132772  0.93231723     0.12100
H2011       H  0.83964662  0.86704037  0.92140053     0.11600
H2012       H  0.86654762  0.88896743  0.94345655     0.11800
H2013       H  0.80060046  0.81719684  0.90528359     0.14500
H2014       H  0.79228543  0.73992951  0.91109978     0.13300
H2015       H  0.87345760  0.82654002  0.96897024     0.11000
H2016       H  0.86246994  0.89547242  0.96569777     0.13000
C2017       C  0.46788364  0.75183179  0.75383871     0.19100
C2018       C  0.47686441  0.73879467  0.76518801    -0.19000
C2019       C  0.49404458  0.76306832  0.77616313    -0.11300
C2020       C  0.50328141  0.80130843  0.77595837     0.21300
C2021       C  0.49508378  0.81454823  0.76450051    -0.20600
C2022       C  0.47798598  0.79031815  0.75353649    -0.11500
C2023       C  0.52021192  0.82775345  0.78758452    -0.15600
C2024       C  0.54073123  0.82289305  0.79710681    -0.29500
C2025       C  0.44704496  0.72465185  0.74262344    -0.03700
C2026       C  0.42224432  0.72906050  0.73485179    -0.40300
H2027       H  0.46946401  0.70940586  0.76571349     0.12500
H2028       H  0.49891732  0.75134335  0.78488105     0.12100
H2029       H  0.50203730  0.84382885  0.76401156     0.11600
H2030       H  0.47285214  0.80194750  0.74483177     0.11800
H2031       H  0.51660769  0.85256155  0.78810897     0.14500
H2032       H  0.54652358  0.79950719  0.79630199     0.13300
H2033       H  0.45022417  0.69975023  0.74126939     0.11000
H2034       H  0.41744405  0.75273669  0.73693991     0.13000
C2035       C  0.59156344  0.06143126  0.84848972     0.19100
C2036       C  0.58069153  0.04776639  0.83544337    -0.19000
C2037       C  0.57137175  0.01081304  0.83180768    -0.11300
C2038       C  0.57298583  0.98675385  0.84112528     0.21300
C2039       C  0.58322231  0.00030107  0.85417044    -0.20600
C2040       C  0.59264559  0.03727243  0.85779031    -0.11500
C2041       C  0.56858158  0.94913332  0.83759319    -0.15600
C2042       C  0.55907488  0.93186976  0.82558959    -0.29500
C2043       C  0.60384608  0.10123841  0.85246571    -0.03700
C2044       C  0.59048547  0.12114827  0.84620160    -0.40300
H2045       H  0.58084567  0.06593164  0.82785726     0.12500
H2046       H  0.56443784  0.00200569  0.82161972     0.12100
H2047       H  0.58504778  0.98253843  0.86155015     0.11600
H2048       H  0.60118152  0.04715403  0.86785691     0.11800
H2049       H  0.57619409  0.93587837  0.84529675     0.14500
H2050       H  0.54936389  0.94268342  0.81770742     0.13300
H2051       H  0.62428194  0.11434499  0.86063496     0.11000
H2052       H  0.56876434  0.10747193  0.83842921     0.13000
C2053       C  0.71888160  0.82772667  0.85926688     0.19100
C2054       C  0.68756291  0.83044080  0.86446447    -0.19000
C2055       C  0.66259262  0.83576621  0.85624108    -0.11300
C2056       C  0.66891512  0.83908692  0.84264484     0.21300
C2057       C  0.70124368  0.83805829  0.83751877    -0.20600
C2058       C  0.72630376  0.83285569  0.84575775    -0.11500
C2059       C  0.64157911  0.84234303  0.83356447    -0.15600
C2060       C  0.62114369  0.85915905  0.83723245    -0.29500
C2061       C  0.73995798  0.81482535  0.86786271    -0.03700
C2062       C  0.75092777  0.79046169  0.86322342    -0.40300
H2063       H  0.68111408  0.82631815  0.87480963     0.12500
H2064       H  0.63749044  0.83563097  0.86050223     0.12100
H2065       H  0.70687876  0.84090281  0.82709871     0.11600
H2066       H  0.75084150  0.83188188  0.84148769     0.11800
H2067       H  0.63979783  0.83251100  0.82344143     0.14500
H2068       H  0.62540022  0.87214217  0.84697176     0.13300
H2069       H  0.73966996  0.81934817  0.87840296     0.11000
H2070       H  0.74760662  0.78290610  0.85282924     0.13000
C2071       C  0.15093700  0.39600019  0.67403484     0.19100
C2072       C  0.14576932  0.37750549  0.66175478    -0.19000
C2073       C  0.11365034  0.34153952  0.65921198    -0.11300
C2074       C  0.08588770  0.32312131  0.66897612     0.21300
C2075       C  0.09137686  0.34138064  0.68128960    -0.20600
C2076       C  0.12343973  0.37725399  0.68383679    -0.11500
C2077       C  0.04977950  0.28601885  0.66668301    -0.15600
C2078       C  0.04307760  0.26258834  0.65622028    -0.29500
C2079       C  0.18462424  0.43503334  0.67593365    -0.03700
C2080       C  0.19175845  0.45700479  0.68687198    -0.40300
H2081       H  0.16633493  0.39123119  0.65398455     0.12500
H2082       H  0.11042328  0.32903184  0.64949670     0.12100
H2083       H  0.07046117  0.32795089  0.68898857     0.11600
H2084       H  0.12591207  0.38987651  0.69347350     0.11800
H2085       H  0.02740990  0.27763849  0.67406806     0.14500
H2086       H  0.06516661  0.26917817  0.64888690     0.13300
H2087       H  0.20366492  0.44688983  0.66760817     0.11000
H2088       H  0.17305109  0.44692112  0.69528547     0.13000
C2089       C  0.98913073  0.13348739  0.60925923     0.19100
C2090       C  0.95595827  0.09995288  0.60472017    -0.19000
C2091       C  0.95773459  0.08042318  0.59338443    -0.11300
C2092       C  0.99270079  0.09409613  0.58635996     0.21300
C2093       C  0.02544715  0.12755588  0.59093144    -0.20600
C2094       C  0.02365124  0.14698012  0.60214165    -0.11500
C2095       C  0.99747145  0.07410283  0.57462034    -0.15600
C2096       C  0.96803440  0.04615543  0.56752572    -0.29500
C2097       C  0.98996301  0.15606903  0.62115882    -0.03700
C2098       C  0.96159945  0.14579230  0.63012735    -0.40300
H2099       H  0.92865790  0.08864537  0.60981520     0.12500
H2100       H  0.93189885  0.05441606  0.59036771     0.12100
H2101       H  0.05278503  0.13879346  0.58580905     0.11600
H2102       H  0.04969061  0.17271307  0.60532459     0.11800
H2103       H  0.02712288  0.08319773  0.57163188     0.14500
H2104       H  0.93808440  0.03703076  0.57002381     0.13300
H2105       H  0.01643931  0.18316283  0.62268214     0.11000
H2106       H  0.93470131  0.11898014  0.62910429     0.13000
C2107       C  0.47051520  0.87023364  0.69233245     0.19100
C2108       C  0.46499619  0.89980801  0.69710993    -0.19000
C2109       C  0.49677084  0.93630243  0.69895446    -0.11300
C2110       C  0.53471099  0.94349418  0.69627610     0.21300
C2111       C  0.53999585  0.91404833  0.69120856    -0.20600
C2112       C  0.50832662  0.87772125  0.68933589    -0.11500
C2113       C  0.56972850  0.98079643  0.69891624    -0.15600
C2114       C  0.57101775  0.00636044  0.70780905    -0.29500
C2115       C  0.43709643  0.83125936  0.69152265    -0.03700
C2116       C  0.43578049  0.80523594  0.68286207    -0.40300
H2117       H  0.43608587  0.89458569  0.69948256     0.12500
H2118       H  0.49142681  0.95857082  0.70249846     0.12100
H2119       H  0.56892075  0.91886716  0.68909624     0.11600
H2120       H  0.51382778  0.85533545  0.68603000     0.11800
H2121       H  0.59634979  0.98610962  0.69405840     0.14500
H2122       H  0.54531318  0.00106886  0.71323222     0.13300
H2123       H  0.41376753  0.82359510  0.69849606     0.11000
H2124       H  0.45786969  0.81341286  0.67539578     0.13000
C2125       C  0.65704499  0.19393864  0.77875206     0.19100
C2126       C  0.63037699  0.18492839  0.76835735    -0.19000
C2127       C  0.63552264  0.17071588  0.75635799    -0.11300
C2128       C  0.66717034  0.16439693  0.75456762     0.21300
C2129       C  0.69443402  0.17436361  0.76483182    -0.20600
C2130       C  0.68937062  0.18874592  0.77683417    -0.11500
C2131       C  0.67142822  0.14572360  0.74242534    -0.15600
C2132       C  0.64031256  0.12028487  0.73533999    -0.29500
C2133       C  0.64946908  0.20751706  0.79151216    -0.03700
C2134       C  0.67772030  0.22912435  0.80031255    -0.40300
H2135       H  0.60541600  0.18891444  0.76952523     0.12500
H2136       H  0.61454697  0.16461484  0.74854647     0.12100
H2137       H  0.71901718  0.16976312  0.76371965     0.11600
H2138       H  0.71016903  0.19457375  0.78467508     0.11800
H2139       H  0.70004397  0.14984368  0.74008368     0.14500
H2140       H  0.61134903  0.11384093  0.73827214     0.13300
H2141       H  0.61978605  0.20099455  0.79343496     0.11000
H2142       H  0.70787937  0.23819433  0.79812552     0.13000
C2143       C  0.77995979  0.12316448  0.69562858     0.19100
C2144       C  0.80976708  0.16055288  0.69396124    -0.19000
C2145       C  0.84054381  0.16849840  0.68548564    -0.11300
C2146       C  0.84254967  0.13899306  0.67861235     0.21300
C2147       C  0.81308954  0.10154374  0.68047064    -0.20600
C2148       C  0.78236690  0.09360222  0.68896111    -0.11500
C2149       C  0.87418734  0.14615881  0.66920598    -0.15600
C2150       C  0.90928690  0.17775961  0.66975789    -0.29500
C2151       C  0.74633476  0.11620887  0.70402505    -0.03700
C2152       C  0.71082791  0.08582456  0.70208244    -0.40300
H2153       H  0.80865409  0.18383478  0.69894806     0.12500
H2154       H  0.86197773  0.19786243  0.68411378     0.12100
H2155       H  0.81394073  0.07827061  0.67537129     0.11600
H2156       H  0.76077026  0.06424907  0.69028290     0.11800
H2157       H  0.86878589  0.12419204  0.66186144     0.14500
H2158       H  0.91581092  0.19899356  0.67748007     0.13300
H2159       H  0.75012671  0.13792013  0.71125504     0.11000
H2160       H  0.70632386  0.06508881  0.69438136     0.13000
loop_ 
_geom_bond_atom_site_label_1 
_geom_bond_atom_site_label_2 
_geom_bond_distance 
_geom_bond_site_symmetry_2 
_ccdc_geom_bond_type 
C1            N2   1.366       .  A
C1            N6   1.357       .  A
C1         C2132   1.474       .  S
N2            C3   1.365       .  A
C3            N4   1.354       .  A
C3         C2152   1.476       .  S
N4            C5   1.354       .  A
C5            N6   1.352       .  A
C5         C2114   1.471       .  S
C7            N8   1.364       .  A
C7           N12   1.361   1_655  A
C7         C2098   1.488       .  S
N8            C9   1.365       .  A
C9           N10   1.356       .  A
C9         C2150   1.479       .  S
N10          C11   1.356   1_655  A
C11          N12   1.355       .  A
C11        C2078   1.478       .  S
C13          N14   1.366       .  A
C13          N18   1.360       .  A
C13        C2024   1.480       .  S
N14          C15   1.363       .  A
C15          N16   1.355       .  A
C15        C2042   1.480       .  S
N16          C17   1.349       .  A
C17          N18   1.356       .  A
C17        C2060   1.469       .  S
C19          N20   1.362       .  A
C19          N24   1.364       .  A
C19        C2006   1.483       .  S
N20          C21   1.361       .  A
C21          N22   1.350       .  A
C21        C1990   1.472       .  S
N22          C23   1.351       .  A
C23          N24   1.361       .  A
C23        C2062   1.467       .  S
C25          N26   1.355       .  A
C25          N30   1.366       .  A
C25        C1934   1.472       .  S
N26          C27   1.350       .  A
C27          N28   1.353       .  A
C27        C1952   1.470       .  S
N28          C29   1.355       .  A
C29          N30   1.365       .  A
C29        C1970   1.475       .  S
C31          N32   1.357       .  A
C31          N36   1.363       .  A
C31        C1900   1.484       .  S
N32          C33   1.352       .  A
C33          N34   1.358       .  A
C33        C1972   1.475       .  S
N34          C35   1.360       .  A
C35          N36   1.366       .  A
C35        C1918   1.483       .  S
C37          N38   1.353       .  A
C37          N42   1.355       .  A
C37        C1846   1.468       .  S
N38          C39   1.355       .  A
C39          N40   1.360   1_556  A
C39        C1862   1.470       .  S
N40          C41   1.360   1_554  A
C41          N42   1.354       .  A
C41        C1882   1.465   1_556  S
C43          N44   1.353       .  A
C43          N48   1.358       .  A
C43        C1828   1.475       .  S
N44          C45   1.348       .  A
C45          N46   1.358       .  A
C45        C1880   1.465       .  S
N46          C47   1.358       .  A
C47          N48   1.364       .  A
C47        C1810   1.476       .  S
C49          N50   1.362   1_455  A
C49          N54   1.363       .  A
C49        C1754   1.480       .  S
N50          C51   1.356       .  A
C51          N52   1.357       .  A
C51        C1774   1.481       .  S
N52          C53   1.356   1_655  A
C53          N54   1.363       .  A
C53        C1790   1.480       .  S
C55          N56   1.368       .  A
C55          N60   1.357       .  A
C55        C1736   1.478       .  S
N56          C57   1.368       .  A
C57          N58   1.356       .  A
C57        C1792   1.479       .  S
N58          C59   1.353       .  A
C59          N60   1.351       .  A
C59        C1718   1.475       .  S
C61          N62   1.361       .  A
C61          N66   1.363       .  A
C61        C1664   1.483       .  S
N62          C63   1.355       .  A
C63          N64   1.357       .  A
C63        C1700   1.478       .  S
N64          C65   1.355       .  A
C65          N66   1.364       .  A
C65        C1684   1.479       .  S
C67          N68   1.354       .  A
C67          N72   1.355       .  A
C67        C1628   1.475       .  S
N68          C69   1.358   1_545  A
C69          N70   1.364   1_565  A
C69        C1648   1.476       .  S
N70          C71   1.364       .  A
C71          N72   1.356       .  A
C71        C1702   1.473       .  S
C73          N74   1.364       .  A
C73          N78   1.361       .  A
C73        C1594   1.478       .  S
N74          C75   1.361       .  A
C75          N76   1.356       .  A
C75        C1574   1.482       .  S
N76          C77   1.353       .  A
C77          N78   1.360       .  A
C77        C1610   1.473       .  S
C79          N80   1.364       .  A
C79          N84   1.356       .  A
C79        C1556   1.476       .  S
N80          C81   1.365       .  A
C81          N82   1.356       .  A
C81        C1612   1.473       .  S
N82          C83   1.354       .  A
C83          N84   1.353       .  A
C83        C1538   1.472   1_565  S
C85          N86   1.348       .  A
C85          N90   1.359       .  A
C85        C1502   1.469       .  S
N86          C87   1.351       .  A
C87          N88   1.362       .  A
C87        C1520   1.467       .  S
N88          C89   1.366       .  A
C89          N90   1.361       .  A
C89        C1486   1.481       .  S
C91          N92   1.354       .  A
C91          N96   1.348       .  A
C91        C1448   1.461       .  S
N92          C93   1.355       .  A
C93          N94   1.366       .  A
C93        C1522   1.473       .  S
N94          C95   1.363       .  A
C95          N96   1.351       .  A
C95        C1466   1.467       .  S
C97          N98   1.357       .  A
C97         N102   1.358       .  A
C97        C1412   1.478       .  S
N98          C99   1.354       .  A
C99         N100   1.360       .  A
C99        C1430   1.475       .  S
N100        C101   1.359       .  A
C101        N102   1.362       .  A
C101       C1396   1.477       .  S
C103        N104   1.353       .  A
C103        N108   1.353       .  A
C103       C1358   1.470       .  S
N104        C105   1.352       .  A
C105        N106   1.362       .  A
C105       C1432   1.471       .  S
N106        C107   1.365       .  A
C107        N108   1.357       .  A
C107       C1376   1.472       .  S
C109        N110   1.354       .  A
C109        N114   1.359       .  A
C109       C1306   1.479       .  S
N110        C111   1.352       .  A
C111        N112   1.363       .  A
C111       C1342   1.472   1_545  S
N112        C113   1.363       .  A
C113        N114   1.362       .  A
C113       C1322   1.482       .  S
C115        N116   1.364       .  A
C115        N120   1.363       .  A
C115       C1270   1.480       .  S
N116        C117   1.362       .  A
C117        N118   1.351       .  A
C117       C1340   1.470       .  S
N118        C119   1.350       .  A
C119        N120   1.359       .  A
C119       C1286   1.473       .  S
C121        N122   1.352       .  A
C121        N126   1.353       .  A
C121       C1216   1.469       .  S
N122        C123   1.353       .  A
C123        N124   1.364       .  A
C123       C1232   1.467       .  S
N124        C125   1.364       .  A
C125        N126   1.356       .  A
C125       C1252   1.474       .  S
C127        N128   1.355       .  A
C127        N132   1.357       .  A
C127       C1196   1.475       .  S
N128        C129   1.357       .  A
C129        N130   1.363       .  A
C129       C1178   1.476       .  S
N130        C131   1.363       .  A
C131        N132   1.357       .  A
C131       C1250   1.477       .  S
C133        N134   1.357       .  A
C133        N138   1.352       .  A
C133       C1126   1.471       .  S
N134        C135   1.358       .  A
C135        N136   1.363       .  A
C135       C1162   1.476       .  S
N136        C137   1.362       .  A
C137        N138   1.354       .  A
C137       C1144   1.473       .  S
C139        N140   1.360       .  A
C139        N144   1.359       .  A
C139       C1088   1.484       .  S
N140        C141   1.358   1_565  A
C141        N142   1.360   1_545  A
C141       C1160   1.479       .  S
N142        C143   1.359       .  A
C143        N144   1.362       .  A
C143       C1108   1.480       .  S
C145        N146   1.365       .  A
C145        N150   1.357       .  A
C145       C1052   1.475       .  S
N146        C147   1.365       .  A
C147        N148   1.356       .  A
C147       C1070   1.475       .  S
N148        C149   1.355       .  A
C149        N150   1.353       .  A
C149       C1034   1.475       .  S
C151        N152   1.359       .  A
C151        N156   1.361       .  A
C151       C1018   1.483       .  S
N152        C153   1.353       .  A
C153        N154   1.357       .  A
C153        C998   1.475   1_565  S
N154        C155   1.357       .  A
C155        N156   1.364       .  A
C155       C1072   1.478       .  S
C157        N158   1.353       .  A
C157        N162   1.351       .  A
C157        C964   1.472       .  S
N158        C159   1.356       .  A
C159        N160   1.366       .  A
C159        C980   1.475       .  S
N160        C161   1.367       .  A
C161        N162   1.356       .  A
C161        C944   1.476       .  S
C163        N164   1.357   1_565  A
C163        N168   1.359       .  A
C163        C926   1.481       .  S
N164        C165   1.353       .  A
C165        N166   1.362       .  A
C165        C982   1.480       .  S
N166        C167   1.362   1_545  A
C167        N168   1.363       .  A
C167        C908   1.483       .  S
C169        N170   1.362       .  A
C169        N174   1.358       .  A
C169        C856   1.475       .  S
N170        C171   1.360       .  A
C171        N172   1.354       .  A
C171        C890   1.471       .  S
N172        C173   1.353       .  A
C173        N174   1.358       .  A
C173        C872   1.471       .  S
C175        N176   1.359       .  A
C175        N180   1.362       .  A
C175        C818   1.481       .  S
N176        C177   1.360       .  A
C177        N178   1.354       .  A
C177        C892   1.472       .  S
N178        C179   1.358       .  A
C179        N180   1.358       .  A
C179        C836   1.478       .  S
C181        N182   1.354       .  A
C181        N186   1.360       .  A
C181        C766   1.483       .  S
N182        C183   1.357       .  A
C183        N184   1.364       .  A
C183        C802   1.481       .  S
N184        C185   1.366       .  A
C185        N186   1.362       .  A
C185        C784   1.485       .  S
C187        N188   1.355       .  A
C187        N192   1.350   1_655  A
C187        C748   1.471       .  S
N188        C189   1.358       .  A
C189        N190   1.368       .  A
C189        C800   1.481       .  S
N190        C191   1.366   1_655  A
C191        N192   1.354       .  A
C191        C728   1.475       .  S
C193        N194   1.364       .  A
C193        N198   1.355       .  A
C193        C692   1.480       .  S
N194        C195   1.367       .  A
C195        N196   1.362       .  A
C195        C712   1.483   1_556  S
N196        C197   1.359       .  A
C197        N198   1.354       .  A
C197        C674   1.478       .  S
C199        N200   1.356       .  A
C199        N204   1.360       .  A
C199        C638   1.481       .  S
N200        C201   1.356       .  A
C201        N202   1.361       .  A
C201        C658   1.480       .  S
N202        C203   1.364       .  A
C203        N204   1.363       .  A
C203        C710   1.483       .  S
C205        N206   1.350       .  A
C205        N210   1.362       .  A
C205        C586   1.484       .  S
N206        C207   1.352       .  A
C207        N208   1.365       .  A
C207        C622   1.478       .  S
N208        C209   1.369       .  A
C209        N210   1.368       .  A
C209        C602   1.491       .  S
C211        N212   1.357   1_655  A
C211        N216   1.354       .  A
C211        C550   1.475       .  S
N212        C213   1.359       .  A
C213        N214   1.366   1_455  A
C213        C620   1.479       .  S
N214        C215   1.364       .  A
C215        N216   1.356       .  A
C215        C566   1.478       .  S
O217        C228   1.292       .  A
O217       Eu253   2.467       .  S
O218        C229   1.292       .  A
O218       Eu252   2.474       .  S
O219        C230   1.292       .  A
O219       Eu225   2.455       .  S
O220        C231   1.291       .  A
O220       Eu225   2.459       .  S
O221        C231   1.294       .  A
O221       Eu255   2.465       .  S
O222        C230   1.286       .  A
O222       Eu254   2.429       .  S
O223        C229   1.291       .  A
O223       Eu225   2.454       .  S
O224        C228   1.289       .  A
O224       Eu225   2.454       .  S
Eu225       O235   2.352       .  S
Eu225       O227   2.348       .  S
Eu225       O226   2.352       .  S
Eu225       O233   2.350       .  S
O226       Eu255   2.362       .  S
O226       Eu252   2.341       .  S
O227       Eu253   2.335       .  S
O227       Eu254   2.362       .  S
C228       C2134   1.479       .  S
C229       C1576   1.485       .  S
C230       C1450   1.460       .  S
C231        C568   1.480       .  S
H232        O233   0.965       .  S
O233       Eu254   2.364       .  S
O233       Eu252   2.339       .  S
H234        O235   0.966       .  S
O235       Eu253   2.354       .  S
O235       Eu255   2.368       .  S
O236        C259   1.287       .  A
O236       Eu252   2.437       .  S
O237        C260   1.288       .  A
O237       Eu253   2.450       .  S
O238        C261   1.296       .  A
O238       Eu254   2.485       .  S
O239        C262   1.295       .  A
O239       Eu255   2.477       .  S
O240        C263   1.296       .  A
O240       Eu255   2.484       .  S
O241        C264   1.293       .  A
O241       Eu254   2.465       .  S
O242        C265   1.292       .  A
O242       Eu256   2.466       .  S
O243        C266   1.288       .  A
O243       Eu256   2.441       .  S
O244        C265   1.296       .  A
O244       Eu254   2.489       .  S
O245        C266   1.296       .  A
O245       Eu255   2.483       .  S
O246        C261   1.285       .  A
O246       Eu252   2.424       .  S
O247        C264   1.287       .  A
O247       Eu253   2.438       .  S
O248        C263   1.285       .  A
O248       Eu253   2.425       .  S
O249        C262   1.289       .  A
O249       Eu252   2.451       .  S
O250        C259   1.291       .  A
O250       Eu256   2.455       .  S
O251        C260   1.290       .  A
O251       Eu256   2.447       .  S
Eu252       O270   2.353       .  S
Eu252       O258   2.361       .  S
Eu253       O257   2.343       .  S
Eu253       O268   2.356       .  S
Eu254       O268   2.352       .  S
Eu254       O258   2.345       .  S
Eu255       O257   2.347       .  S
Eu255       O270   2.360       .  S
Eu256       O257   2.346       .  S
Eu256       O268   2.349       .  S
Eu256       O270   2.358       .  S
Eu256       O258   2.343       .  S
C259       C1844   1.466       .  S
C260       C1540   1.474       .  S
C261       C1988   1.470       .  S
C262        C694   1.480       .  S
C263       C2044   1.471       .  S
C264        C962   1.470       .  S
C265        C604   1.491       .  S
C266       C1304   1.476       .  S
H267        O268   0.966       .  S
H269        O270   0.965       .  S
O271        C282   1.293       .  A
O271       Eu307   2.463   1_556  S
O272        C283   1.291       .  A
O272       Eu306   2.462       .  S
O273        C284   1.291       .  A
O273       Eu279   2.463       .  S
O274        C285   1.293       .  A
O274       Eu279   2.462   1_546  S
O275        C285   1.290   1_455  A
O275       Eu309   2.456   1_546  S
O276        C284   1.294       .  A
O276       Eu308   2.471       .  S
O277        C283   1.293       .  A
O277       Eu279   2.466   1_545  S
O278        C282   1.292       .  A
O278       Eu279   2.468   1_556  S
Eu279       O289   2.355   1_554  S
Eu279       O281   2.359       .  S
Eu279       O280   2.351   1_565  S
Eu279       O287   2.357       .  S
O280       Eu309   2.355   1_645  S
O280       Eu306   2.354       .  S
O281       Eu307   2.363       .  S
O281       Eu308   2.360       .  S
C282       C2008   1.483       .  S
C283        C676   1.484       .  S
C284       C1268   1.483       .  S
C285        C548   1.479   1_655  S
H286        O287   0.966       .  S
O287       Eu308   2.353       .  S
O287       Eu306   2.349   1_565  S
H288        O289   0.965       .  S
O289       Eu307   2.354   1_556  S
O289       Eu309   2.354   1_656  S
O290        C313   1.292   1_545  A
O290       Eu306   2.459   1_455  S
O291        C314   1.293       .  A
O291       Eu307   2.474       .  S
O292        C315   1.292       .  A
O292       Eu308   2.463       .  S
O293        C316   1.295       .  A
O293       Eu309   2.480   1_545  S
O294        C317   1.294       .  A
O294       Eu309   2.474   1_556  S
O295        C318   1.290       .  A
O295       Eu308   2.459       .  S
O296        C319   1.291       .  A
O296       Eu310   2.446   1_655  S
O297        C320   1.293       .  A
O297       Eu310   2.476       .  S
O298        C319   1.290       .  A
O298       Eu308   2.458       .  S
O299        C320   1.291       .  A
O299       Eu309   2.450       .  S
O300        C315   1.292       .  A
O300       Eu306   2.470   1_565  S
O301        C318   1.291       .  A
O301       Eu307   2.454       .  S
O302        C317   1.291   1_655  A
O302       Eu307   2.464   1_556  S
O303        C316   1.287       .  A
O303       Eu306   2.436   1_455  S
O304        C313   1.292       .  A
O304       Eu310   2.466       .  S
O305        C314   1.293   1_455  A
O305       Eu310   2.462       .  S
Eu306       O324   2.361   1_645  S
Eu306       O312   2.345   1_545  S
Eu307       O311   2.355   1_655  S
Eu307       O322   2.350       .  S
Eu308       O322   2.357       .  S
Eu308       O312   2.357       .  S
Eu309       O311   2.356       .  S
Eu309       O324   2.353       .  S
Eu310       O311   2.351       .  S
Eu310       O322   2.355   1_455  S
Eu310       O324   2.346       .  S
Eu310       O312   2.359   1_455  S
C313       C1666   1.481   1_565  S
C314        C656   1.486   1_655  S
C315       C1090   1.484       .  S
C316       C1808   1.471       .  S
C317       C1558   1.486       .  S
C318       C1864   1.476       .  S
C319        C746   1.474       .  S
C320       C1324   1.485       .  S
H321        O322   0.964       .  S
H323        O324   0.965       .  S
O325        C336   1.290       .  A
O325       Eu361   2.446       .  S
O326        C337   1.288       .  A
O326       Eu360   2.446       .  S
O327        C338   1.291       .  A
O327       Eu333   2.456       .  S
O328        C339   1.291       .  A
O328       Eu333   2.462       .  S
O329        C339   1.292       .  A
O329       Eu363   2.455       .  S
O330        C338   1.290       .  A
O330       Eu362   2.460       .  S
O331        C337   1.292       .  A
O331       Eu333   2.460       .  S
O332        C336   1.289       .  A
O332       Eu333   2.451       .  S
Eu333       O343   2.362       .  S
Eu333       O335   2.346       .  S
Eu333       O334   2.344       .  S
Eu333       O341   2.354       .  S
O334       Eu363   2.354       .  S
O334       Eu360   2.344       .  S
O335       Eu361   2.342       .  S
O335       Eu362   2.342       .  S
C336       C1954   1.473       .  S
C337       C1000   1.474       .  S
C338        C854   1.478       .  S
C339       C1180   1.479       .  S
H340        O341   0.965       .  S
O341       Eu362   2.358       .  S
O341       Eu360   2.351       .  S
H342        O343   0.966       .  S
O343       Eu361   2.357       .  S
O343       Eu363   2.358       .  S
O344        C367   1.289       .  A
O344       Eu360   2.440       .  S
O345        C368   1.290       .  A
O345       Eu361   2.458       .  S
O346        C369   1.289       .  A
O346       Eu362   2.451       .  S
O347        C370   1.291       .  A
O347       Eu363   2.449       .  S
O348        C371   1.291       .  A
O348       Eu363   2.463       .  S
O349        C372   1.291       .  A
O349       Eu362   2.456       .  S
O350        C373   1.287       .  A
O350       Eu364   2.440       .  S
O351        C374   1.291       .  A
O351       Eu364   2.454       .  S
O352        C373   1.292       .  A
O352       Eu362   2.458       .  S
O353        C374   1.293       .  A
O353       Eu363   2.474       .  S
O354        C369   1.291       .  A
O354       Eu360   2.453       .  S
O355        C372   1.289       .  A
O355       Eu361   2.449       .  S
O356        C371   1.291       .  A
O356       Eu361   2.457       .  S
O357        C370   1.289       .  A
O357       Eu360   2.450       .  S
O358        C367   1.291       .  A
O358       Eu364   2.464       .  S
O359        C368   1.291       .  A
O359       Eu364   2.454       .  S
Eu360       O378   2.355       .  S
Eu360       O366   2.346       .  S
Eu361       O365   2.345       .  S
Eu361       O376   2.350       .  S
Eu362       O376   2.354       .  S
Eu362       O366   2.351       .  S
Eu363       O365   2.344       .  S
Eu363       O378   2.354       .  S
Eu364       O365   2.350       .  S
Eu364       O376   2.355       .  S
Eu364       O378   2.345       .  S
Eu364       O366   2.350       .  S
C367       C1630   1.475       .  S
C368       C1036   1.475       .  S
C369       C1720   1.474       .  S
C370       C1124   1.472       .  S
C371       C1772   1.478       .  S
C372       C1414   1.472       .  S
C373       C1234   1.470       .  S
C374        C764   1.485       .  S
H375        O376   0.966       .  S
H377        O378   0.965       .  S
O379        C390   1.288       .  A
O379       Eu415   2.442       .  S
O380        C391   1.290       .  A
O380       Eu414   2.448       .  S
O381        C392   1.294       .  A
O381       Eu387   2.477       .  S
O382        C393   1.285       .  A
O382       Eu387   2.425       .  S
O383        C393   1.300       .  A
O383       Eu417   2.516       .  S
O384        C392   1.288       .  A
O384       Eu416   2.446       .  S
O385        C391   1.294       .  A
O385       Eu387   2.480       .  S
O386        C390   1.291       .  A
O386       Eu387   2.452       .  S
Eu387       O397   2.369       .  S
Eu387       O389   2.346       .  S
Eu387       O388   2.358       .  S
Eu387       O395   2.336       .  S
O388       Eu417   2.355       .  S
O388       Eu414   2.354       .  S
O389       Eu415   2.356       .  S
O389       Eu416   2.346       .  S
C390       C2116   1.467       .  S
C391       C1592   1.478       .  S
C392        C910   1.479       .  S
C393       C2026   1.482       .  S
H394        O395   0.966       .  S
O395       Eu416   2.357       .  S
O395       Eu414   2.369       .  S
H396        O397   0.966       .  S
O397       Eu415   2.357       .  S
O397       Eu417   2.360       .  S
O398        C421   1.291       .  A
O398       Eu414   2.462       .  S
O399        C422   1.289       .  A
O399       Eu415   2.439       .  S
O400        C423   1.288       .  A
O400       Eu416   2.443       .  S
O401        C424   1.288       .  A
O401       Eu417   2.439       .  S
O402        C425   1.290       .  A
O402       Eu417   2.451       .  S
O403        C426   1.290       .  A
O403       Eu416   2.457       .  S
O404        C427   1.291       .  A
O404       Eu418   2.462       .  S
O405        C428   1.286       .  A
O405       Eu418   2.431       .  S
O406        C427   1.290       .  A
O406       Eu416   2.456       .  S
O407        C428   1.298       .  A
O407       Eu417   2.500       .  S
O408        C423   1.296       .  A
O408       Eu414   2.483       .  S
O409        C426   1.294       .  A
O409       Eu415   2.476       .  S
O410        C425   1.295       .  A
O410       Eu415   2.479       .  S
O411        C424   1.298       .  A
O411       Eu414   2.505       .  S
O412        C421   1.289       .  A
O412       Eu418   2.441       .  S
O413        C422   1.289       .  A
O413       Eu418   2.453       .  S
Eu414       O432   2.351       .  S
Eu414       O420   2.362       .  S
Eu415       O419   2.351       .  S
Eu415       O430   2.349       .  S
Eu416       O430   2.337       .  S
Eu416       O420   2.351       .  S
Eu417       O419   2.359       .  S
Eu417       O432   2.365       .  S
Eu418       O419   2.356       .  S
Eu418       O430   2.333       .  S
Eu418       O432   2.358       .  S
Eu418       O420   2.346       .  S
C421       C2080   1.475       .  S
C422       C1360   1.470       .  S
C423       C1468   1.473       .  S
C424        C584   1.483       .  S
C425       C1484   1.482       .  S
C426        C820   1.478       .  S
C427       C1898   1.478       .  S
C428        C946   1.478       .  S
H429        O430   0.965       .  S
H431        O432   0.964       .  S
O433        C444   1.290       .  A
O433       Eu469   2.447       .  S
O434        C445   1.295       .  A
O434       Eu468   2.483       .  S
O435        C446   1.285       .  A
O435       Eu441   2.426       .  S
O436        C447   1.291       .  A
O436       Eu441   2.463       .  S
O437        C447   1.293       .  A
O437       Eu471   2.469       .  S
O438        C446   1.296       .  A
O438       Eu470   2.486       .  S
O439        C445   1.288       .  A
O439       Eu441   2.442       .  S
O440        C444   1.290       .  A
O440       Eu441   2.459       .  S
Eu441       O451   2.344       .  S
Eu441       O443   2.354       .  S
Eu441       O442   2.339       .  S
Eu441       O449   2.366       .  S
O442       Eu471   2.352       .  S
O442       Eu468   2.362       .  S
O443       Eu469   2.348       .  S
O443       Eu470   2.356       .  S
C444       C1826   1.473       .  S
C445       C1106   1.476       .  S
C446       C1288   1.471       .  S
C447        C782   1.485       .  S
H448        O449   0.964       .  S
O449       Eu470   2.352       .  S
O449       Eu468   2.353       .  S
H450        O451   0.965       .  S
O451       Eu469   2.369       .  S
O451       Eu471   2.353       .  S
O452        C475   1.295       .  A
O452       Eu468   2.481       .  S
O453        C476   1.291       .  A
O453       Eu469   2.465       .  S
O454        C477   1.291       .  A
O454       Eu470   2.462       .  S
O455        C478   1.296       .  A
O455       Eu471   2.483       .  S
O456        C479   1.298       .  A
O456       Eu471   2.504       .  S
O457        C480   1.292       .  A
O457       Eu470   2.456       .  S
O458        C481   1.291       .  A
O458       Eu472   2.460       .  S
O459        C482   1.294       .  A
O459       Eu472   2.469       .  S
O460        C481   1.293       .  A
O460       Eu470   2.467       .  S
O461        C482   1.288       .  A
O461       Eu471   2.446       .  S
O462        C477   1.293       .  A
O462       Eu468   2.467       .  S
O463        C480   1.292       .  A
O463       Eu469   2.470       .  S
O464        C479   1.286       .  A
O464       Eu469   2.431       .  S
O465        C478   1.288       .  A
O465       Eu468   2.442       .  S
O466        C475   1.288       .  A
O466       Eu472   2.447       .  S
O467        C476   1.291       .  A
O467       Eu472   2.453       .  S
Eu468       O486   2.364       .  S
Eu468       O474   2.348       .  S
Eu469       O473   2.354       .  S
Eu469       O484   2.338       .  S
Eu470       O484   2.355       .  S
Eu470       O474   2.357       .  S
Eu471       O473   2.362       .  S
Eu471       O486   2.367       .  S
Eu472       O473   2.346       .  S
Eu472       O484   2.352       .  S
Eu472       O486   2.352       .  S
Eu472       O474   2.353       .  S
C475       C1738   1.481       .  S
C476       C1142   1.482       .  S
C477       C1646   1.483       .  S
C478       C1054   1.478       .  S
C479       C1682   1.478       .  S
C480        C640   1.484       .  S
C481        C730   1.479       .  S
C482       C1198   1.475       .  S
H483        O484   0.965       .  S
H485        O486   0.965       .  S
O487        C498   1.296   1_455  A
O487       Eu523   2.479       .  S
O488        C499   1.288       .  A
O488       Eu522   2.444       .  S
O489        C500   1.294   1_565  A
O489       Eu495   2.480       .  S
O490        C501   1.286       .  A
O490       Eu495   2.428       .  S
O491        C501   1.294       .  A
O491       Eu525   2.473   1_655  S
O492        C500   1.284       .  A
O492       Eu524   2.421       .  S
O493        C499   1.294       .  A
O493       Eu495   2.470       .  S
O494        C498   1.291   1_565  A
O494       Eu495   2.462       .  S
Eu495       O505   2.369       .  S
Eu495       O497   2.343   1_565  S
Eu495       O496   2.359       .  S
Eu495       O503   2.347       .  S
O496       Eu525   2.358   1_655  S
O496       Eu522   2.355       .  S
O497       Eu523   2.354   1_655  S
O497       Eu524   2.339       .  S
C498       C2096   1.486       .  S
C499       C1378   1.475       .  S
C500        C874   1.469       .  S
C501       C1504   1.467       .  S
H502        O503   0.966       .  S
O503       Eu524   2.358   1_565  S
O503       Eu522   2.367       .  S
H504        O505   0.965       .  S
O505       Eu523   2.355   1_665  S
O505       Eu525   2.352   1_655  S
O506        C529   1.292   1_655  A
O506       Eu522   2.464       .  S
O507        C530   1.296       .  A
O507       Eu523   2.487       .  S
O508        C531   1.294       .  A
O508       Eu524   2.464   1_565  S
O509        C532   1.288       .  A
O509       Eu525   2.441   1_655  S
O510        C533   1.291       .  A
O510       Eu525   2.459       .  S
O511        C534   1.296       .  A
O511       Eu524   2.491   1_455  S
O512        C535   1.292       .  A
O512       Eu526   2.460   1_545  S
O513        C536   1.289       .  A
O513       Eu526   2.447       .  S
O514        C535   1.286       .  A
O514       Eu524   2.431   1_455  S
O515        C536   1.292       .  A
O515       Eu525   2.465       .  S
O516        C531   1.289       .  A
O516       Eu522   2.453       .  S
O517        C534   1.286       .  A
O517       Eu523   2.432       .  S
O518        C533   1.290   1_545  A
O518       Eu523   2.456       .  S
O519        C532   1.295       .  A
O519       Eu522   2.476       .  S
O520        C529   1.289       .  A
O520       Eu526   2.457       .  S
O521        C530   1.287       .  A
O521       Eu526   2.434   1_545  S
Eu522       O540   2.345   1_655  S
Eu522       O528   2.346       .  S
Eu523       O527   2.347   1_545  S
Eu523       O538   2.355       .  S
Eu524       O538   2.346   1_655  S
Eu524       O528   2.351   1_545  S
Eu525       O527   2.352       .  S
Eu525       O540   2.359       .  S
Eu526       O527   2.355       .  S
Eu526       O538   2.354   1_565  S
Eu526       O540   2.340       .  S
Eu526       O528   2.337   1_455  S
C529       C1756   1.474       .  S
C530       C1394   1.474       .  S
C531       C1016   1.479       .  S
C532       C1936   1.474       .  S
C533        C928   1.476       .  S
C534       C1916   1.475       .  S
C535       C1214   1.466       .  S
C536        C838   1.472       .  S
H537        O538   0.965       .  S
H539        O540   0.965       .  S
C541        C549   1.489       .  S
C541        C542   1.404   1_655  A
C541        C546   1.408       .  A
C542        C543   1.400       .  A
C542        H551   1.083       .  S
C543        C544   1.409   1_455  A
C543        H552   1.080       .  S
C544        C547   1.489       .  S
C544        C545   1.403       .  A
C545        C546   1.396       .  A
C545        H553   1.084       .  S
C546        H554   1.081       .  S
C547        H555   1.087       .  S
C547        C548   1.347   1_655  D
C548        H556   1.083       .  S
C549        H557   1.087   1_655  S
C549        C550   1.346       .  D
C550        H558   1.084       .  S
C559        C567   1.490       .  S
C559        C560   1.403       .  A
C559        C564   1.410       .  A
C560        C561   1.396       .  A
C560        H569   1.084       .  S
C561        C562   1.408       .  A
C561        H570   1.082       .  S
C562        C565   1.491       .  S
C562        C563   1.404       .  A
C563        C564   1.403       .  A
C563        H571   1.083       .  S
C564        H572   1.081       .  S
C565        H573   1.086       .  S
C565        C566   1.345       .  D
C566        H574   1.086       .  S
C567        H575   1.087       .  S
C567        C568   1.347       .  D
C568        H576   1.084       .  S
C577        C585   1.504       .  S
C577        C578   1.404       .  A
C577        C582   1.415       .  A
C578        C579   1.401       .  A
C578        H587   1.083       .  S
C579        C580   1.411       .  A
C579        H588   1.081       .  S
C580        C583   1.500       .  S
C580        C581   1.403       .  A
C581        C582   1.404       .  A
C581        H589   1.083       .  S
C582        H590   1.078       .  S
C583        H591   1.087       .  S
C583        C584   1.346       .  D
C584        H592   1.085       .  S
C585        H593   1.087       .  S
C585        C586   1.347       .  D
C586        H594   1.081       .  S
C595        C603   1.506       .  S
C595        C596   1.406       .  A
C595        C600   1.412       .  A
C596        C597   1.404       .  A
C596        H605   1.083       .  S
C597        C598   1.411       .  A
C597        H606   1.079       .  S
C598        C601   1.507       .  S
C598        C599   1.408       .  A
C599        C600   1.406       .  A
C599        H607   1.083       .  S
C600        H608   1.080       .  S
C601        H609   1.087       .  S
C601        C602   1.354       .  D
C602        H610   1.082       .  S
C603        H611   1.087       .  S
C603        C604   1.352       .  D
C604        H612   1.083       .  S
C613        C621   1.495       .  S
C613        C614   1.403       .  A
C613        C618   1.411       .  A
C614        C615   1.402       .  A
C614        H623   1.083       .  S
C615        C616   1.410       .  A
C615        H624   1.081       .  S
C616        C619   1.490       .  S
C616        C617   1.401       .  A
C617        C618   1.398       .  A
C617        H625   1.084       .  S
C618        H626   1.081       .  S
C619        H627   1.087       .  S
C619        C620   1.344       .  D
C620        H628   1.085       .  S
C621        H629   1.086       .  S
C621        C622   1.344       .  D
C622        H630   1.085       .  S
C631        C639   1.492       .  S
C631        C632   1.403       .  A
C631        C636   1.408       .  A
C632        C633   1.397       .  A
C632        H641   1.084       .  S
C633        C634   1.410       .  A
C633        H642   1.078       .  S
C634        C637   1.500       .  S
C634        C635   1.407       .  A
C635        C636   1.403       .  A
C635        H643   1.083       .  S
C636        H644   1.080       .  S
C637        H645   1.087       .  S
C637        C638   1.349       .  D
C638        H646   1.081       .  S
C639        H647   1.087       .  S
C639        C640   1.350       .  D
C640        H648   1.084       .  S
C649        C657   1.496       .  S
C649        C650   1.406       .  A
C649        C654   1.409       .  A
C650        C651   1.405       .  A
C650        H659   1.083   1_455  S
C651        C652   1.409       .  A
C651        H660   1.081   1_455  S
C652        C655   1.492       .  S
C652        C653   1.403       .  A
C653        C654   1.396       .  A
C653        H661   1.084       .  S
C654        H662   1.080       .  S
C655        H663   1.087       .  S
C655        C656   1.349       .  D
C656        H664   1.085   1_455  S
C657        H665   1.087       .  S
C657        C658   1.349       .  D
C658        H666   1.083       .  S
C667        C675   1.492       .  S
C667        C668   1.403       .  A
C667        C672   1.410       .  A
C668        C669   1.396       .  A
C668        H677   1.084       .  S
C669        C670   1.408       .  A
C669        H678   1.080   1_554  S
C670        C673   1.494       .  S
C670        C671   1.405       .  A
C671        C672   1.403       .  A
C671        H679   1.083       .  S
C672        H680   1.080       .  S
C673        H681   1.087       .  S
C673        C674   1.348   1_554  D
C674        H682   1.083       .  S
C675        H683   1.087       .  S
C675        C676   1.348       .  D
C676        H684   1.084       .  S
C685        C693   1.489       .  S
C685        C686   1.401       .  A
C685        C690   1.409       .  A
C686        C687   1.399       .  A
C686        H695   1.084       .  S
C687        C688   1.411       .  A
C687        H696   1.080       .  S
C688        C691   1.496       .  S
C688        C689   1.404       .  A
C689        C690   1.402       .  A
C689        H697   1.083       .  S
C690        H698   1.082       .  S
C691        H699   1.087       .  S
C691        C692   1.346       .  D
C692        H700   1.084       .  S
C693        H701   1.087       .  S
C693        C694   1.346       .  D
C694        H702   1.086       .  S
C703        C711   1.491   1_554  S
C703        C704   1.408       .  A
C703        C708   1.403       .  A
C704        C705   1.402   1_655  A
C704        H713   1.082       .  S
C705        C706   1.409   1_455  A
C705        H714   1.082       .  S
C706        C709   1.492   1_655  S
C706        C707   1.404       .  A
C707        C708   1.400       .  A
C707        H715   1.083       .  S
C708        H716   1.083       .  S
C709        H717   1.087   1_455  S
C709        C710   1.349       .  D
C710        H718   1.085       .  S
C711        H719   1.087       .  S
C711        C712   1.347   1_556  D
C712        H720   1.086       .  S
C721        C729   1.492       .  S
C721        C722   1.403       .  A
C721        C726   1.411       .  A
C722        C723   1.397       .  A
C722        H731   1.084       .  S
C723        C724   1.410       .  A
C723        H732   1.081       .  S
C724        C727   1.492       .  S
C724        C725   1.402       .  A
C725        C726   1.401       .  A
C725        H733   1.083       .  S
C726        H734   1.080       .  S
C727        H735   1.087       .  S
C727        C728   1.342       .  D
C728        H736   1.085       .  S
C729        H737   1.087       .  S
C729        C730   1.347       .  D
C730        H738   1.083       .  S
C739        C747   1.484       .  S
C739        C740   1.403       .  A
C739        C744   1.408       .  A
C740        C741   1.397       .  A
C740        H749   1.083       .  S
C741        C742   1.406       .  A
C741        H750   1.081       .  S
C742        C745   1.479       .  S
C742        C743   1.401       .  A
C743        C744   1.394       .  A
C743        H751   1.084   1_655  S
C744        H752   1.081       .  S
C745        H753   1.087       .  S
C745        C746   1.345       .  D
C746        H754   1.085       .  S
C747        H755   1.087       .  S
C747        C748   1.343       .  D
C748        H756   1.084   1_655  S
C757        C765   1.495       .  S
C757        C758   1.403       .  A
C757        C762   1.412       .  A
C758        C759   1.398       .  A
C758        H767   1.083       .  S
C759        C760   1.404       .  A
C759        H768   1.084       .  S
C760        C763   1.492       .  S
C760        C761   1.408       .  A
C761        C762   1.404       .  A
C761        H769   1.081       .  S
C762        H770   1.080       .  S
C763        H771   1.087       .  S
C763        C764   1.350       .  D
C764        H772   1.084       .  S
C765        H773   1.087       .  S
C765        C766   1.347       .  D
C766        H774   1.083       .  S
C775        C783   1.497       .  S
C775        C776   1.405       .  A
C775        C780   1.409       .  A
C776        C777   1.403       .  A
C776        H785   1.083       .  S
C777        C778   1.410       .  A
C777        H786   1.079       .  S
C778        C781   1.499       .  S
C778        C779   1.406       .  A
C779        C780   1.401       .  A
C779        H787   1.084       .  S
C780        H788   1.081       .  S
C781        H789   1.087       .  S
C781        C782   1.351       .  D
C782        H790   1.083       .  S
C783        H791   1.087       .  S
C783        C784   1.349       .  D
C784        H792   1.084       .  S
C793        C801   1.495       .  S
C793        C794   1.403       .  A
C793        C798   1.410       .  A
C794        C795   1.402       .  A
C794        H803   1.083       .  S
C795        C796   1.411       .  A
C795        H804   1.081       .  S
C796        C799   1.494       .  S
C796        C797   1.402       .  A
C797        C798   1.400       .  A
C797        H805   1.083       .  S
C798        H806   1.081       .  S
C799        H807   1.087       .  S
C799        C800   1.345       .  D
C800        H808   1.085       .  S
C801        H809   1.087       .  S
C801        C802   1.346       .  D
C802        H810   1.085       .  S
C811        C819   1.491       .  S
C811        C812   1.405       .  A
C811        C816   1.407       .  A
C812        C813   1.404       .  A
C812        H821   1.083       .  S
C813        C814   1.409       .  A
C813        H822   1.082       .  S
C814        C817   1.487       .  S
C814        C815   1.401       .  A
C815        C816   1.396       .  A
C815        H823   1.083       .  S
C816        H824   1.082       .  S
C817        H825   1.087       .  S
C817        C818   1.345       .  D
C818        H826   1.085       .  S
C819        H827   1.086       .  S
C819        C820   1.347       .  D
C820        H828   1.086       .  S
C829        C837   1.487       .  S
C829        C830   1.404       .  A
C829        C834   1.407       .  A
C830        C831   1.402       .  A
C830        H839   1.083       .  S
C831        C832   1.408       .  A
C831        H840   1.082       .  S
C832        C835   1.482       .  S
C832        C833   1.401       .  A
C833        C834   1.394       .  A
C833        H841   1.084       .  S
C834        H842   1.082       .  S
C835        H843   1.087       .  S
C835        C836   1.345       .  D
C836        H844   1.085       .  S
C837        H845   1.087       .  S
C837        C838   1.345       .  D
C838        H846   1.085       .  S
C847        C855   1.486       .  S
C847        C848   1.402       .  A
C847        C852   1.408       .  A
C848        C849   1.398       .  A
C848        H857   1.083       .  S
C849        C850   1.408       .  A
C849        H858   1.080       .  S
C850        C853   1.487       .  S
C850        C851   1.404       .  A
C851        C852   1.397       .  A
C851        H859   1.084       .  S
C852        H860   1.081       .  S
C853        H861   1.087       .  S
C853        C854   1.347       .  D
C854        H862   1.084       .  S
C855        H863   1.087       .  S
C855        C856   1.345       .  D
C856        H864   1.084       .  S
C865        C873   1.485       .  S
C865        C866   1.400       .  A
C865        C870   1.409       .  A
C866        C867   1.398       .  A
C866        H875   1.083       .  S
C867        C868   1.410       .  A
C867        H876   1.080       .  S
C868        C871   1.485       .  S
C868        C869   1.401       .  A
C869        C870   1.394       .  A
C869        H877   1.084       .  S
C870        H878   1.082       .  S
C871        H879   1.087       .  S
C871        C872   1.343       .  D
C872        H880   1.083       .  S
C873        H881   1.087       .  S
C873        C874   1.340       .  D
C874        H882   1.086       .  S
C883        C891   1.483       .  S
C883        C884   1.402       .  A
C883        C888   1.408       .  A
C884        C885   1.396   1_565  A
C884        H893   1.083       .  S
C885        C886   1.407       .  A
C885        H894   1.082       .  S
C886        C889   1.484       .  S
C886        C887   1.402   1_545  A
C887        C888   1.398       .  A
C887        H895   1.083       .  S
C888        H896   1.081       .  S
C889        H897   1.087       .  S
C889        C890   1.344       .  D
C890        H898   1.085       .  S
C891        H899   1.087       .  S
C891        C892   1.343       .  D
C892        H900   1.085       .  S
C901        C909   1.493       .  S
C901        C902   1.404       .  A
C901        C906   1.408       .  A
C902        C903   1.402       .  A
C902        H911   1.083       .  S
C903        C904   1.408       .  A
C903        H912   1.081       .  S
C904        C907   1.491       .  S
C904        C905   1.404       .  A
C905        C906   1.400       .  A
C905        H913   1.083       .  S
C906        H914   1.082       .  S
C907        H915   1.087       .  S
C907        C908   1.349       .  D
C908        H916   1.085       .  S
C909        H917   1.087       .  S
C909        C910   1.347       .  D
C910        H918   1.085       .  S
C919        C927   1.489       .  S
C919        C920   1.406       .  A
C919        C924   1.407       .  A
C920        C921   1.402       .  A
C920        H929   1.083       .  S
C921        C922   1.407       .  A
C921        H930   1.081       .  S
C922        C925   1.485       .  S
C922        C923   1.403   1_565  A
C923        C924   1.394   1_545  A
C923        H931   1.084       .  S
C924        H932   1.081   1_565  S
C925        H933   1.087   1_565  S
C925        C926   1.348       .  D
C926        H934   1.084       .  S
C927        H935   1.087       .  S
C927        C928   1.348       .  D
C928        H936   1.084   1_565  S
C937        C945   1.490       .  S
C937        C938   1.400       .  A
C937        C942   1.410       .  A
C938        C939   1.399       .  A
C938        H947   1.083       .  S
C939        C940   1.412       .  A
C939        H948   1.080       .  S
C940        C943   1.495       .  S
C940        C941   1.403       .  A
C941        C942   1.400       .  A
C941        H949   1.083       .  S
C942        H950   1.082       .  S
C943        H951   1.087       .  S
C943        C944   1.344       .  D
C944        H952   1.083       .  S
C945        H953   1.087       .  S
C945        C946   1.342       .  D
C946        H954   1.086       .  S
C955        C963   1.479       .  S
C955        C956   1.400       .  A
C955        C960   1.406       .  A
C956        C957   1.395       .  A
C956        H965   1.084       .  S
C957        C958   1.409       .  A
C957        H966   1.081       .  S
C958        C961   1.485       .  S
C958        C959   1.404       .  A
C959        C960   1.398       .  A
C959        H967   1.083       .  S
C960        H968   1.082       .  S
C961        H969   1.087       .  S
C961        C962   1.344       .  D
C962        H970   1.084       .  S
C963        H971   1.087       .  S
C963        C964   1.344       .  D
C964        H972   1.086       .  S
C973        C981   1.490       .  S
C973        C974   1.400       .  A
C973        C978   1.412       .  A
C974        C975   1.394       .  A
C974        H983   1.083       .  S
C975        C976   1.408       .  A
C975        H984   1.082       .  S
C976        C979   1.491       .  S
C976        C977   1.404       .  A
C977        C978   1.405       .  A
C977        H985   1.083       .  S
C978        H986   1.081       .  S
C979        H987   1.086       .  S
C979        C980   1.345       .  D
C980        H988   1.086       .  S
C981        H989   1.087       .  S
C981        C982   1.343       .  D
C982        H990   1.084       .  S
C991        C999   1.485       .  S
C991        C992   1.402       .  A
C991        C996   1.408       .  A
C992        C993   1.397       .  A
C992       H1001   1.084       .  S
C993        C994   1.408       .  A
C993       H1002   1.081       .  S
C994        C997   1.485       .  S
C994        C995   1.402       .  A
C995        C996   1.397       .  A
C995       H1003   1.084       .  S
C996       H1004   1.081       .  S
C997       H1005   1.087   1_545  S
C997        C998   1.345       .  D
C998       H1006   1.084       .  S
C999       H1007   1.087       .  S
C999       C1000   1.345       .  D
C1000      H1008   1.084       .  S
C1009      C1017   1.484       .  S
C1009      C1010   1.408       .  A
C1009      C1014   1.402       .  A
C1010      C1011   1.404       .  A
C1010      H1019   1.082       .  S
C1011      C1012   1.410       .  A
C1011      H1020   1.081       .  S
C1012      C1015   1.485       .  S
C1012      C1013   1.400       .  A
C1013      C1014   1.392       .  A
C1013      H1021   1.084   1_565  S
C1014      H1022   1.084   1_565  S
C1015      H1023   1.087       .  S
C1015      C1016   1.345       .  D
C1016      H1024   1.085       .  S
C1017      H1025   1.087       .  S
C1017      C1018   1.348       .  D
C1018      H1026   1.085       .  S
C1027      C1035   1.485       .  S
C1027      C1028   1.404       .  A
C1027      C1032   1.407       .  A
C1028      C1029   1.399       .  A
C1028      H1037   1.083       .  S
C1029      C1030   1.406       .  A
C1029      H1038   1.082       .  S
C1030      C1033   1.480       .  S
C1030      C1031   1.401       .  A
C1031      C1032   1.395       .  A
C1031      H1039   1.084       .  S
C1032      H1040   1.081       .  S
C1033      H1041   1.087       .  S
C1033      C1034   1.345       .  D
C1034      H1042   1.086       .  S
C1035      H1043   1.087       .  S
C1035      C1036   1.346       .  D
C1036      H1044   1.085       .  S
C1045      C1053   1.487       .  S
C1045      C1046   1.400       .  A
C1045      C1050   1.410       .  A
C1046      C1047   1.395       .  A
C1046      H1055   1.084       .  S
C1047      C1048   1.408       .  A
C1047      H1056   1.082       .  S
C1048      C1051   1.490       .  S
C1048      C1049   1.403       .  A
C1049      C1050   1.402       .  A
C1049      H1057   1.083       .  S
C1050      H1058   1.082       .  S
C1051      H1059   1.087       .  S
C1051      C1052   1.345       .  D
C1052      H1060   1.086       .  S
C1053      H1061   1.087       .  S
C1053      C1054   1.343       .  D
C1054      H1062   1.086       .  S
C1063      C1071   1.492       .  S
C1063      C1064   1.403       .  A
C1063      C1068   1.412       .  A
C1064      C1065   1.397       .  A
C1064      H1073   1.084       .  S
C1065      C1066   1.408       .  A
C1065      H1074   1.082       .  S
C1066      C1069   1.489       .  S
C1066      C1067   1.402       .  A
C1067      C1068   1.401       .  A
C1067      H1075   1.083       .  S
C1068      H1076   1.079       .  S
C1069      H1077   1.087       .  S
C1069      C1070   1.344       .  D
C1070      H1078   1.085       .  S
C1071      H1079   1.087       .  S
C1071      C1072   1.345       .  D
C1072      H1080   1.083       .  S
C1081      C1089   1.497       .  S
C1081      C1082   1.407       .  A
C1081      C1086   1.408       .  A
C1082      C1083   1.404       .  A
C1082      H1091   1.083       .  S
C1083      C1084   1.410       .  A
C1083      H1092   1.080       .  S
C1084      C1087   1.495       .  S
C1084      C1085   1.404       .  A
C1085      C1086   1.398       .  A
C1085      H1093   1.083   1_565  S
C1086      H1094   1.080   1_565  S
C1087      H1095   1.087       .  S
C1087      C1088   1.349       .  D
C1088      H1096   1.083       .  S
C1089      H1097   1.087       .  S
C1089      C1090   1.352       .  D
C1090      H1098   1.083       .  S
C1099      C1107   1.486       .  S
C1099      C1100   1.402       .  A
C1099      C1104   1.407       .  A
C1100      C1101   1.399       .  A
C1100      H1109   1.084       .  S
C1101      C1102   1.410       .  A
C1101      H1110   1.081       .  S
C1102      C1105   1.493       .  S
C1102      C1103   1.405       .  A
C1103      C1104   1.400       .  A
C1103      H1111   1.083       .  S
C1104      H1112   1.082       .  S
C1105      H1113   1.087       .  S
C1105      C1106   1.346       .  D
C1106      H1114   1.084       .  S
C1107      H1115   1.087       .  S
C1107      C1108   1.346       .  D
C1108      H1116   1.086       .  S
C1117      C1125   1.487       .  S
C1117      C1118   1.403       .  A
C1117      C1122   1.409       .  A
C1118      C1119   1.396       .  A
C1118      H1127   1.084       .  S
C1119      C1120   1.408       .  A
C1119      H1128   1.079       .  S
C1120      C1123   1.485       .  S
C1120      C1121   1.402       .  A
C1121      C1122   1.394       .  A
C1121      H1129   1.084       .  S
C1122      H1130   1.079       .  S
C1123      H1131   1.087       .  S
C1123      C1124   1.345       .  D
C1124      H1132   1.082       .  S
C1125      H1133   1.087       .  S
C1125      C1126   1.344       .  D
C1126      H1134   1.081       .  S
C1135      C1143   1.489   1_455  S
C1135      C1136   1.403       .  A
C1135      C1140   1.408       .  A
C1136      C1137   1.401       .  A
C1136      H1145   1.083       .  S
C1137      C1138   1.409       .  A
C1137      H1146   1.080       .  S
C1138      C1141   1.489       .  S
C1138      C1139   1.403       .  A
C1139      C1140   1.395       .  A
C1139      H1147   1.084       .  S
C1140      H1148   1.081       .  S
C1141      H1149   1.087       .  S
C1141      C1142   1.349       .  D
C1142      H1150   1.083       .  S
C1143      H1151   1.087       .  S
C1143      C1144   1.345       .  D
C1144      H1152   1.084       .  S
C1153      C1161   1.486       .  S
C1153      C1154   1.402       .  A
C1153      C1158   1.407       .  A
C1154      C1155   1.398       .  A
C1154      H1163   1.083       .  S
C1155      C1156   1.409       .  A
C1155      H1164   1.081       .  S
C1156      C1159   1.490       .  S
C1156      C1157   1.405       .  A
C1157      C1158   1.399       .  A
C1157      H1165   1.083       .  S
C1158      H1166   1.082       .  S
C1159      H1167   1.087       .  S
C1159      C1160   1.347       .  D
C1160      H1168   1.084       .  S
C1161      H1169   1.087       .  S
C1161      C1162   1.344       .  D
C1162      H1170   1.086       .  S
C1171      C1179   1.486       .  S
C1171      C1172   1.403       .  A
C1171      C1176   1.408       .  A
C1172      C1173   1.396       .  A
C1172      H1181   1.084       .  S
C1173      C1174   1.407       .  A
C1173      H1182   1.082       .  S
C1174      C1177   1.487   1_655  S
C1174      C1175   1.403       .  A
C1175      C1176   1.400       .  A
C1175      H1183   1.083       .  S
C1176      H1184   1.081       .  S
C1177      H1185   1.087       .  S
C1177      C1178   1.345       .  D
C1178      H1186   1.085       .  S
C1179      H1187   1.087       .  S
C1179      C1180   1.347       .  D
C1180      H1188   1.085       .  S
C1189      C1197   1.485       .  S
C1189      C1190   1.401       .  A
C1189      C1194   1.408       .  A
C1190      C1191   1.397       .  A
C1190      H1199   1.083       .  S
C1191      C1192   1.409       .  A
C1191      H1200   1.080       .  S
C1192      C1195   1.487       .  S
C1192      C1193   1.403       .  A
C1193      C1194   1.398       .  A
C1193      H1201   1.084       .  S
C1194      H1202   1.081       .  S
C1195      H1203   1.087       .  S
C1195      C1196   1.346       .  D
C1196      H1204   1.083       .  S
C1197      H1205   1.087       .  S
C1197      C1198   1.344       .  D
C1198      H1206   1.085       .  S
C1207      C1215   1.483       .  S
C1207      C1208   1.405       .  A
C1207      C1212   1.407       .  A
C1208      C1209   1.396       .  A
C1208      H1217   1.083       .  S
C1209      C1210   1.399       .  A
C1209      H1218   1.083       .  S
C1210      C1213   1.477       .  S
C1210      C1211   1.406       .  A
C1211      C1212   1.392       .  A
C1211      H1219   1.082       .  S
C1212      H1220   1.080       .  S
C1213      H1221   1.087       .  S
C1213      C1214   1.341       .  D
C1214      H1222   1.086       .  S
C1215      H1223   1.087       .  S
C1215      C1216   1.346       .  D
C1216      H1224   1.082       .  S
C1225      C1233   1.483       .  S
C1225      C1226   1.402       .  A
C1225      C1230   1.411       .  A
C1226      C1227   1.393       .  A
C1226      H1235   1.084       .  S
C1227      C1228   1.407       .  A
C1227      H1236   1.083       .  S
C1228      C1231   1.479       .  S
C1228      C1229   1.398       .  A
C1229      C1230   1.397       .  A
C1229      H1237   1.083       .  S
C1230      H1238   1.080       .  S
C1231      H1239   1.086       .  S
C1231      C1232   1.339       .  D
C1232      H1240   1.087       .  S
C1233      H1241   1.087       .  S
C1233      C1234   1.343       .  D
C1234      H1242   1.083       .  S
C1243      C1251   1.487       .  S
C1243      C1244   1.401       .  A
C1243      C1248   1.409       .  A
C1244      C1245   1.399       .  A
C1244      H1253   1.083       .  S
C1245      C1246   1.410       .  A
C1245      H1254   1.081       .  S
C1246      C1249   1.489       .  S
C1246      C1247   1.402       .  A
C1247      C1248   1.398       .  A
C1247      H1255   1.083       .  S
C1248      H1256   1.082       .  S
C1249      H1257   1.087       .  S
C1249      C1250   1.344       .  D
C1250      H1258   1.085       .  S
C1251      H1259   1.087       .  S
C1251      C1252   1.343       .  D
C1252      H1260   1.086       .  S
C1261      C1269   1.493       .  S
C1261      C1262   1.405       .  A
C1261      C1266   1.408       .  A
C1262      C1263   1.402       .  A
C1262      H1271   1.083       .  S
C1263      C1264   1.410       .  A
C1263      H1272   1.081       .  S
C1264      C1267   1.492       .  S
C1264      C1265   1.403       .  A
C1265      C1266   1.398       .  A
C1265      H1273   1.083       .  S
C1266      H1274   1.081       .  S
C1267      H1275   1.087       .  S
C1267      C1268   1.347       .  D
C1268      H1276   1.085       .  S
C1269      H1277   1.087       .  S
C1269      C1270   1.349       .  D
C1270      H1278   1.084       .  S
C1279      C1287   1.483       .  S
C1279      C1280   1.399       .  A
C1279      C1284   1.409       .  A
C1280      C1281   1.398       .  A
C1280      H1289   1.083       .  S
C1281      C1282   1.411       .  A
C1281      H1290   1.081       .  S
C1282      C1285   1.488       .  S
C1282      C1283   1.402       .  A
C1283      C1284   1.397       .  A
C1283      H1291   1.083       .  S
C1284      H1292   1.082       .  S
C1285      H1293   1.087       .  S
C1285      C1286   1.342       .  D
C1286      H1294   1.084       .  S
C1287      H1295   1.087       .  S
C1287      C1288   1.340       .  D
C1288      H1296   1.087       .  S
C1297      C1305   1.486       .  S
C1297      C1298   1.404       .  A
C1297      C1302   1.405       .  A
C1298      C1299   1.396       .  A
C1298      H1307   1.081       .  S
C1299      C1300   1.411       .  A
C1299      H1308   1.080       .  S
C1300      C1303   1.492       .  S
C1300      C1301   1.404       .  A
C1301      C1302   1.401       .  A
C1301      H1309   1.083       .  S
C1302      H1310   1.083       .  S
C1303      H1311   1.087       .  S
C1303      C1304   1.345       .  D
C1304      H1312   1.084       .  S
C1305      H1313   1.087       .  S
C1305      C1306   1.350       .  D
C1306      H1314   1.085       .  S
C1315      C1323   1.489       .  S
C1315      C1316   1.403   1_565  A
C1315      C1320   1.408       .  A
C1316      C1317   1.398   1_554  A
C1316      H1325   1.084   1_554  S
C1317      C1318   1.407   1_556  A
C1317      H1326   1.081       .  S
C1318      C1321   1.494   1_554  S
C1318      C1319   1.406   1_545  A
C1319      C1320   1.404       .  A
C1319      H1327   1.083       .  S
C1320      H1328   1.082       .  S
C1321      H1329   1.087   1_546  S
C1321      C1322   1.350       .  D
C1322      H1330   1.084       .  S
C1323      H1331   1.087   1_565  S
C1323      C1324   1.350       .  D
C1324      H1332   1.085       .  S
C1333      C1341   1.490       .  S
C1333      C1334   1.401       .  A
C1333      C1338   1.413       .  A
C1334      C1335   1.394       .  A
C1334      H1343   1.084       .  S
C1335      C1336   1.409       .  A
C1335      H1344   1.081       .  S
C1336      C1339   1.488       .  S
C1336      C1337   1.400       .  A
C1337      C1338   1.399       .  A
C1337      H1345   1.084       .  S
C1338      H1346   1.078   1_554  S
C1339      H1347   1.087       .  S
C1339      C1340   1.341       .  D
C1340      H1348   1.084       .  S
C1341      H1349   1.087       .  S
C1341      C1342   1.341   1_554  D
C1342      H1350   1.081       .  S
C1351      C1359   1.481       .  S
C1351      C1352   1.404       .  A
C1351      C1356   1.408       .  A
C1352      C1353   1.394       .  A
C1352      H1361   1.084       .  S
C1353      C1354   1.404       .  A
C1353      H1362   1.082       .  S
C1354      C1357   1.475       .  S
C1354      C1355   1.401       .  A
C1355      C1356   1.394       .  A
C1355      H1363   1.084       .  S
C1356      H1364   1.080       .  S
C1357      H1365   1.087       .  S
C1357      C1358   1.344       .  D
C1358      H1366   1.085       .  S
C1359      H1367   1.087       .  S
C1359      C1360   1.345       .  D
C1360      H1368   1.083       .  S
C1369      C1377   1.488       .  S
C1369      C1370   1.402       .  A
C1369      C1374   1.411       .  A
C1370      C1371   1.395       .  A
C1370      H1379   1.084       .  S
C1371      C1372   1.406       .  A
C1371      H1380   1.083       .  S
C1372      C1375   1.482       .  S
C1372      C1373   1.401       .  A
C1373      C1374   1.400       .  A
C1373      H1381   1.083       .  S
C1374      H1382   1.080       .  S
C1375      H1383   1.087       .  S
C1375      C1376   1.342       .  D
C1376      H1384   1.087       .  S
C1377      H1385   1.087       .  S
C1377      C1378   1.344       .  D
C1378      H1386   1.084       .  S
C1387      C1395   1.485       .  S
C1387      C1388   1.401       .  A
C1387      C1392   1.407       .  A
C1388      C1389   1.397       .  A
C1388      H1397   1.084       .  S
C1389      C1390   1.410       .  A
C1389      H1398   1.081       .  S
C1390      C1393   1.492       .  S
C1390      C1391   1.404       .  A
C1391      C1392   1.400       .  A
C1391      H1399   1.083       .  S
C1392      H1400   1.082       .  S
C1393      H1401   1.087       .  S
C1393      C1394   1.345       .  D
C1394      H1402   1.084       .  S
C1395      H1403   1.087       .  S
C1395      C1396   1.345       .  D
C1396      H1404   1.085       .  S
C1405      C1413   1.486       .  S
C1405      C1406   1.404       .  A
C1405      C1410   1.407       .  A
C1406      C1407   1.400       .  A
C1406      H1415   1.083       .  S
C1407      C1408   1.408       .  A
C1407      H1416   1.081       .  S
C1408      C1411   1.484       .  S
C1408      C1409   1.402       .  A
C1409      C1410   1.393       .  A
C1409      H1417   1.084       .  S
C1410      H1418   1.080       .  S
C1411      H1419   1.087       .  S
C1411      C1412   1.346       .  D
C1412      H1420   1.084       .  S
C1413      H1421   1.087       .  S
C1413      C1414   1.346       .  D
C1414      H1422   1.084       .  S
C1423      C1431   1.484       .  S
C1423      C1424   1.400       .  A
C1423      C1428   1.408       .  A
C1424      C1425   1.399       .  A
C1424      H1433   1.083       .  S
C1425      C1426   1.410       .  A
C1425      H1434   1.081       .  S
C1426      C1429   1.485       .  S
C1426      C1427   1.402       .  A
C1427      C1428   1.396       .  A
C1427      H1435   1.084       .  S
C1428      H1436   1.083       .  S
C1429      H1437   1.087       .  S
C1429      C1430   1.343       .  D
C1430      H1438   1.085       .  S
C1431      H1439   1.086       .  S
C1431      C1432   1.341       .  D
C1432      H1440   1.087       .  S
C1441      C1449   1.469       .  S
C1441      C1442   1.397       .  A
C1441      C1446   1.406       .  A
C1442      C1443   1.392       .  A
C1442      H1451   1.084       .  S
C1443      C1444   1.409       .  A
C1443      H1452   1.082       .  S
C1444      C1447   1.472       .  S
C1444      C1445   1.399       .  A
C1445      C1446   1.391       .  A
C1445      H1453   1.084       .  S
C1446      H1454   1.083       .  S
C1447      H1455   1.087       .  S
C1447      C1448   1.338       .  D
C1448      H1456   1.085       .  S
C1449      H1457   1.087       .  S
C1449      C1450   1.338       .  D
C1450      H1458   1.087       .  S
C1459      C1467   1.487       .  S
C1459      C1460   1.402       .  A
C1459      C1464   1.410       .  A
C1460      C1461   1.395       .  A
C1460      H1469   1.084       .  S
C1461      C1462   1.407       .  A
C1461      H1470   1.083       .  S
C1462      C1465   1.485   1_455  S
C1462      C1463   1.402       .  A
C1463      C1464   1.401       .  A
C1463      H1471   1.083       .  S
C1464      H1472   1.081       .  S
C1465      H1473   1.087       .  S
C1465      C1466   1.340       .  D
C1466      H1474   1.087       .  S
C1467      H1475   1.088       .  S
C1467      C1468   1.343       .  D
C1468      H1476   1.085       .  S
C1477      C1485   1.493       .  S
C1477      C1478   1.403       .  A
C1477      C1482   1.409       .  A
C1478      C1479   1.400       .  A
C1478      H1487   1.083       .  S
C1479      C1480   1.410       .  A
C1479      H1488   1.080       .  S
C1480      C1483   1.495       .  S
C1480      C1481   1.404       .  A
C1481      C1482   1.401       .  A
C1481      H1489   1.083       .  S
C1482      H1490   1.080       .  S
C1483      H1491   1.087       .  S
C1483      C1484   1.348       .  D
C1484      H1492   1.083       .  S
C1485      H1493   1.087       .  S
C1485      C1486   1.347       .  D
C1486      H1494   1.084       .  S
C1495      C1503   1.484       .  S
C1495      C1496   1.402       .  A
C1495      C1500   1.409       .  A
C1496      C1497   1.398       .  A
C1496      H1505   1.083       .  S
C1497      C1498   1.409       .  A
C1497      H1506   1.082       .  S
C1498      C1501   1.480       .  S
C1498      C1499   1.398       .  A
C1499      C1500   1.393       .  A
C1499      H1507   1.084       .  S
C1500      H1508   1.081       .  S
C1501      H1509   1.087       .  S
C1501      C1502   1.339       .  D
C1502      H1510   1.086       .  S
C1503      H1511   1.087       .  S
C1503      C1504   1.341       .  D
C1504      H1512   1.085       .  S
C1513      C1521   1.488       .  S
C1513      C1514   1.401       .  A
C1513      C1518   1.413       .  A
C1514      C1515   1.394       .  A
C1514      H1523   1.084       .  S
C1515      C1516   1.407       .  A
C1515      H1524   1.083       .  S
C1516      C1519   1.482       .  S
C1516      C1517   1.399       .  A
C1517      C1518   1.400       .  A
C1517      H1525   1.083       .  S
C1518      H1526   1.080       .  S
C1519      H1527   1.086       .  S
C1519      C1520   1.340       .  D
C1520      H1528   1.087       .  S
C1521      H1529   1.087       .  S
C1521      C1522   1.341       .  D
C1522      H1530   1.083       .  S
C1531      C1539   1.484       .  S
C1531      C1532   1.402       .  A
C1531      C1536   1.409       .  A
C1532      C1533   1.393       .  A
C1532      H1541   1.084       .  S
C1533      C1534   1.407       .  A
C1533      H1542   1.080       .  S
C1534      C1537   1.484       .  S
C1534      C1535   1.403       .  A
C1535      C1536   1.398       .  A
C1535      H1543   1.083       .  S
C1536      H1544   1.080       .  S
C1537      H1545   1.087       .  S
C1537      C1538   1.345       .  D
C1538      H1546   1.084       .  S
C1539      H1547   1.087       .  S
C1539      C1540   1.345       .  D
C1540      H1548   1.083       .  S
C1549      C1557   1.495       .  S
C1549      C1550   1.403       .  A
C1549      C1554   1.412       .  A
C1550      C1551   1.396       .  A
C1550      H1559   1.083       .  S
C1551      C1552   1.408       .  A
C1551      H1560   1.082       .  S
C1552      C1555   1.493       .  S
C1552      C1553   1.404       .  A
C1553      C1554   1.405       .  A
C1553      H1561   1.083       .  S
C1554      H1562   1.080       .  S
C1555      H1563   1.087       .  S
C1555      C1556   1.346       .  D
C1556      H1564   1.085       .  S
C1557      H1565   1.087       .  S
C1557      C1558   1.348       .  D
C1558      H1566   1.084       .  S
C1567      C1575   1.491       .  S
C1567      C1568   1.406       .  A
C1567      C1572   1.407       .  A
C1568      C1569   1.399       .  A
C1568      H1577   1.083       .  S
C1569      C1570   1.406       .  A
C1569      H1578   1.080       .  S
C1570      C1573   1.490   1_655  S
C1570      C1571   1.407       .  A
C1571      C1572   1.400       .  A
C1571      H1579   1.084       .  S
C1572      H1580   1.081       .  S
C1573      H1581   1.087       .  S
C1573      C1574   1.352       .  D
C1574      H1582   1.083       .  S
C1575      H1583   1.087       .  S
C1575      C1576   1.351       .  D
C1576      H1584   1.084       .  S
C1585      C1593   1.484       .  S
C1585      C1586   1.403       .  A
C1585      C1590   1.406       .  A
C1586      C1587   1.399       .  A
C1586      H1595   1.083       .  S
C1587      C1588   1.405       .  A
C1587      H1596   1.083       .  S
C1588      C1591   1.482       .  S
C1588      C1589   1.404       .  A
C1589      C1590   1.402       .  A
C1589      H1597   1.083       .  S
C1590      H1598   1.083       .  S
C1591      H1599   1.087       .  S
C1591      C1592   1.347       .  D
C1592      H1600   1.086       .  S
C1593      H1601   1.087       .  S
C1593      C1594   1.344       .  D
C1594      H1602   1.087       .  S
C1603      C1611   1.484       .  S
C1603      C1604   1.400       .  A
C1603      C1608   1.409       .  A
C1604      C1605   1.397       .  A
C1604      H1613   1.083       .  S
C1605      C1606   1.410       .  A
C1605      H1614   1.081       .  S
C1606      C1609   1.486       .  S
C1606      C1607   1.402       .  A
C1607      C1608   1.398       .  A
C1607      H1615   1.083       .  S
C1608      H1616   1.082       .  S
C1609      H1617   1.087       .  S
C1609      C1610   1.343       .  D
C1610      H1618   1.085       .  S
C1611      H1619   1.087       .  S
C1611      C1612   1.342       .  D
C1612      H1620   1.086       .  S
C1621      C1629   1.483       .  S
C1621      C1622   1.403       .  A
C1621      C1626   1.407       .  A
C1622      C1623   1.396       .  A
C1622      H1631   1.084       .  S
C1623      C1624   1.407       .  A
C1623      H1632   1.081       .  S
C1624      C1627   1.484       .  S
C1624      C1625   1.403       .  A
C1625      C1626   1.397       .  A
C1625      H1633   1.083       .  S
C1626      H1634   1.081       .  S
C1627      H1635   1.087       .  S
C1627      C1628   1.346       .  D
C1628      H1636   1.084       .  S
C1629      H1637   1.087       .  S
C1629      C1630   1.347       .  D
C1630      H1638   1.084       .  S
C1639      C1647   1.489       .  S
C1639      C1640   1.403       .  A
C1639      C1644   1.408       .  A
C1640      C1641   1.402       .  A
C1640      H1649   1.083       .  S
C1641      C1642   1.409       .  A
C1641      H1650   1.082       .  S
C1642      C1645   1.489       .  S
C1642      C1643   1.402       .  A
C1643      C1644   1.398       .  A
C1643      H1651   1.083       .  S
C1644      H1652   1.082       .  S
C1645      H1653   1.087       .  S
C1645      C1646   1.347       .  D
C1646      H1654   1.086       .  S
C1647      H1655   1.087       .  S
C1647      C1648   1.345       .  D
C1648      H1656   1.086       .  S
C1657      C1665   1.490       .  S
C1657      C1658   1.405       .  A
C1657      C1662   1.406       .  A
C1658      C1659   1.401       .  A
C1658      H1667   1.083       .  S
C1659      C1660   1.407       .  A
C1659      H1668   1.080       .  S
C1660      C1663   1.491       .  S
C1660      C1661   1.405       .  A
C1661      C1662   1.398       .  A
C1661      H1669   1.084       .  S
C1662      H1670   1.081       .  S
C1663      H1671   1.087       .  S
C1663      C1664   1.351       .  D
C1664      H1672   1.083       .  S
C1665      H1673   1.087       .  S
C1665      C1666   1.350       .  D
C1666      H1674   1.084   1_545  S
C1675      C1683   1.491       .  S
C1675      C1676   1.402       .  A
C1675      C1680   1.410       .  A
C1676      C1677   1.399       .  A
C1676      H1685   1.083       .  S
C1677      C1678   1.410       .  A
C1677      H1686   1.082       .  S
C1678      C1681   1.495       .  S
C1678      C1679   1.403       .  A
C1679      C1680   1.402       .  A
C1679      H1687   1.083       .  S
C1680      H1688   1.081       .  S
C1681      H1689   1.087       .  S
C1681      C1682   1.344       .  D
C1682      H1690   1.086       .  S
C1683      H1691   1.087       .  S
C1683      C1684   1.344       .  D
C1684      H1692   1.085       .  S
C1693      C1701   1.489       .  S
C1693      C1694   1.404       .  A
C1693      C1698   1.408       .  A
C1694      C1695   1.401       .  A
C1694      H1703   1.083       .  S
C1695      C1696   1.410       .  A
C1695      H1704   1.080       .  S
C1696      C1699   1.487       .  S
C1696      C1697   1.402       .  A
C1697      C1698   1.394       .  A
C1697      H1705   1.084       .  S
C1698      H1706   1.081       .  S
C1699      H1707   1.087       .  S
C1699      C1700   1.346       .  D
C1700      H1708   1.083       .  S
C1701      H1709   1.087       .  S
C1701      C1702   1.344       .  D
C1702      H1710   1.084       .  S
C1711      C1719   1.486       .  S
C1711      C1712   1.403       .  A
C1711      C1716   1.408       .  A
C1712      C1713   1.396   1_545  A
C1712      H1721   1.084       .  S
C1713      C1714   1.408       .  A
C1713      H1722   1.079       .  S
C1714      C1717   1.487       .  S
C1714      C1715   1.403       .  A
C1715      C1716   1.396   1_565  A
C1715      H1723   1.084       .  S
C1716      H1724   1.079       .  S
C1717      H1725   1.087       .  S
C1717      C1718   1.346       .  D
C1718      H1726   1.082       .  S
C1719      H1727   1.087       .  S
C1719      C1720   1.347       .  D
C1720      H1728   1.082       .  S
C1729      C1737   1.492       .  S
C1729      C1730   1.401       .  A
C1729      C1734   1.411       .  A
C1730      C1731   1.398       .  A
C1730      H1739   1.083       .  S
C1731      C1732   1.411       .  A
C1731      H1740   1.081       .  S
C1732      C1735   1.495       .  S
C1732      C1733   1.403       .  A
C1733      C1734   1.403       .  A
C1733      H1741   1.083       .  S
C1734      H1742   1.081       .  S
C1735      H1743   1.086       .  S
C1735      C1736   1.345       .  D
C1736      H1744   1.085       .  S
C1737      H1745   1.087       .  S
C1737      C1738   1.345       .  D
C1738      H1746   1.085       .  S
C1747      C1755   1.483   1_455  S
C1747      C1748   1.404   1_455  A
C1747      C1752   1.405       .  A
C1748      C1749   1.402       .  A
C1748      H1757   1.083       .  S
C1749      C1750   1.406   1_655  A
C1749      H1758   1.083       .  S
C1750      C1753   1.481   1_455  S
C1750      C1751   1.403       .  A
C1751      C1752   1.398       .  A
C1751      H1759   1.083       .  S
C1752      H1760   1.083       .  S
C1753      H1761   1.087       .  S
C1753      C1754   1.345   1_655  D
C1754      H1762   1.086       .  S
C1755      H1763   1.087       .  S
C1755      C1756   1.344   1_655  D
C1756      H1764   1.086       .  S
C1765      C1773   1.487       .  S
C1765      C1766   1.403       .  A
C1765      C1770   1.408       .  A
C1766      C1767   1.395       .  A
C1766      H1775   1.084       .  S
C1767      C1768   1.406       .  A
C1767      H1776   1.081       .  S
C1768      C1771   1.488       .  S
C1768      C1769   1.405       .  A
C1769      C1770   1.402       .  A
C1769      H1777   1.083       .  S
C1770      H1778   1.081       .  S
C1771      H1779   1.087       .  S
C1771      C1772   1.349       .  D
C1772      H1780   1.085       .  S
C1773      H1781   1.087       .  S
C1773      C1774   1.347       .  D
C1774      H1782   1.084       .  S
C1783      C1791   1.494       .  S
C1783      C1784   1.402       .  A
C1783      C1788   1.411       .  A
C1784      C1785   1.400       .  A
C1784      H1793   1.083       .  S
C1785      C1786   1.410       .  A
C1785      H1794   1.081       .  S
C1786      C1789   1.493       .  S
C1786      C1787   1.403       .  A
C1787      C1788   1.401       .  A
C1787      H1795   1.083       .  S
C1788      H1796   1.082       .  S
C1789      H1797   1.087       .  S
C1789      C1790   1.345       .  D
C1790      H1798   1.085       .  S
C1791      H1799   1.087       .  S
C1791      C1792   1.344       .  D
C1792      H1800   1.085       .  S
C1801      C1809   1.485       .  S
C1801      C1802   1.401       .  A
C1801      C1806   1.410       .  A
C1802      C1803   1.394       .  A
C1802      H1811   1.084       .  S
C1803      C1804   1.407       .  A
C1803      H1812   1.082       .  S
C1804      C1807   1.487       .  S
C1804      C1805   1.403       .  A
C1805      C1806   1.401       .  A
C1805      H1813   1.083       .  S
C1806      H1814   1.081       .  S
C1807      H1815   1.087       .  S
C1807      C1808   1.344       .  D
C1808      H1816   1.086       .  S
C1809      H1817   1.087       .  S
C1809      C1810   1.343       .  D
C1810      H1818   1.084       .  S
C1819      C1827   1.480       .  S
C1819      C1820   1.403       .  A
C1819      C1824   1.407       .  A
C1820      C1821   1.392       .  A
C1820      H1829   1.084       .  S
C1821      C1822   1.405       .  A
C1821      H1830   1.082       .  S
C1822      C1825   1.481       .  S
C1822      C1823   1.403       .  A
C1823      C1824   1.398       .  A
C1823      H1831   1.083       .  S
C1824      H1832   1.080       .  S
C1825      H1833   1.087       .  S
C1825      C1826   1.346       .  D
C1826      H1834   1.085       .  S
C1827      H1835   1.087       .  S
C1827      C1828   1.348       .  D
C1828      H1836   1.084       .  S
C1837      C1845   1.480       .  S
C1837      C1838   1.404       .  A
C1837      C1842   1.408       .  A
C1838      C1839   1.396       .  A
C1838      H1847   1.083       .  S
C1839      C1840   1.399       .  A
C1839      H1848   1.083       .  S
C1840      C1843   1.472       .  S
C1840      C1841   1.404       .  A
C1841      C1842   1.393       .  A
C1841      H1849   1.083       .  S
C1842      H1850   1.081       .  S
C1843      H1851   1.086       .  S
C1843      C1844   1.341       .  D
C1844      H1852   1.088       .  S
C1845      H1853   1.087       .  S
C1845      C1846   1.344       .  D
C1846      H1854   1.084       .  S
C1855      C1863   1.488       .  S
C1855      C1856   1.402       .  A
C1855      C1860   1.410       .  A
C1856      C1857   1.394   1_554  A
C1856      H1865   1.084   1_554  S
C1857      C1858   1.407   1_556  A
C1857      H1866   1.081       .  S
C1858      C1861   1.485       .  S
C1858      C1859   1.402       .  A
C1859      C1860   1.399       .  A
C1859      H1867   1.083       .  S
C1860      H1868   1.079       .  S
C1861      H1869   1.087       .  S
C1861      C1862   1.344   1_554  D
C1862      H1870   1.084       .  S
C1863      H1871   1.087       .  S
C1863      C1864   1.346       .  D
C1864      H1872   1.082       .  S
C1873      C1881   1.474       .  S
C1873      C1874   1.399       .  A
C1873      C1878   1.406       .  A
C1874      C1875   1.394       .  A
C1874      H1883   1.084       .  S
C1875      C1876   1.410       .  A
C1875      H1884   1.081       .  S
C1876      C1879   1.477       .  S
C1876      C1877   1.399       .  A
C1877      C1878   1.393       .  A
C1877      H1885   1.083       .  S
C1878      H1886   1.083       .  S
C1879      H1887   1.087       .  S
C1879      C1880   1.337       .  D
C1880      H1888   1.086       .  S
C1881      H1889   1.087       .  S
C1881      C1882   1.341       .  D
C1882      H1890   1.087       .  S
C1891      C1899   1.487       .  S
C1891      C1892   1.405       .  A
C1891      C1896   1.407       .  A
C1892      C1893   1.396       .  A
C1892      H1901   1.084       .  S
C1893      C1894   1.406       .  A
C1893      H1902   1.082       .  S
C1894      C1897   1.486       .  S
C1894      C1895   1.404       .  A
C1895      C1896   1.402       .  A
C1895      H1903   1.083       .  S
C1896      H1904   1.081       .  S
C1897      H1905   1.087       .  S
C1897      C1898   1.347       .  D
C1898      H1906   1.086       .  S
C1899      H1907   1.087       .  S
C1899      C1900   1.351       .  D
C1900      H1908   1.084       .  S
C1909      C1917   1.491       .  S
C1909      C1910   1.401       .  A
C1909      C1914   1.409       .  A
C1910      C1911   1.398       .  A
C1910      H1919   1.083       .  S
C1911      C1912   1.411       .  A
C1911      H1920   1.080       .  S
C1912      C1915   1.498       .  S
C1912      C1913   1.406       .  A
C1913      C1914   1.403       .  A
C1913      H1921   1.083   1_455  S
C1914      H1922   1.082   1_455  S
C1915      H1923   1.087       .  S
C1915      C1916   1.346       .  D
C1916      H1924   1.083       .  S
C1917      H1925   1.087       .  S
C1917      C1918   1.345       .  D
C1918      H1926   1.085       .  S
C1927      C1935   1.490       .  S
C1927      C1928   1.403       .  A
C1927      C1932   1.412       .  A
C1928      C1929   1.397       .  A
C1928      H1937   1.084       .  S
C1929      C1930   1.408       .  A
C1929      H1938   1.083       .  S
C1930      C1933   1.484       .  S
C1930      C1931   1.399       .  A
C1931      C1932   1.398       .  A
C1931      H1939   1.083       .  S
C1932      H1940   1.079       .  S
C1933      H1941   1.086       .  S
C1933      C1934   1.340       .  D
C1934      H1942   1.087       .  S
C1935      H1943   1.087       .  S
C1935      C1936   1.344       .  D
C1936      H1944   1.083       .  S
C1945      C1953   1.481       .  S
C1945      C1946   1.404       .  A
C1945      C1950   1.407       .  A
C1946      C1947   1.395       .  A
C1946      H1955   1.084       .  S
C1947      C1948   1.405       .  A
C1947      H1956   1.082       .  S
C1948      C1951   1.478       .  S
C1948      C1949   1.402       .  A
C1949      C1950   1.396       .  A
C1949      H1957   1.084       .  S
C1950      H1958   1.080       .  S
C1951      H1959   1.087       .  S
C1951      C1952   1.343       .  D
C1952      H1960   1.085       .  S
C1953      H1961   1.087       .  S
C1953      C1954   1.346       .  D
C1954      H1962   1.084       .  S
C1963      C1971   1.485       .  S
C1963      C1964   1.400       .  A
C1963      C1968   1.409   1_655  A
C1964      C1965   1.396       .  A
C1964      H1973   1.084       .  S
C1965      C1966   1.410       .  A
C1965      H1974   1.081       .  S
C1966      C1969   1.492       .  S
C1966      C1967   1.404       .  A
C1967      C1968   1.402   1_655  A
C1967      H1975   1.083   1_655  S
C1968      H1976   1.082       .  S
C1969      H1977   1.087       .  S
C1969      C1970   1.344       .  D
C1970      H1978   1.085       .  S
C1971      H1979   1.087       .  S
C1971      C1972   1.342   1_655  D
C1972      H1980   1.086       .  S
C1981      C1989   1.479       .  S
C1981      C1982   1.398       .  A
C1981      C1986   1.408       .  A
C1982      C1983   1.394       .  A
C1982      H1991   1.084       .  S
C1983      C1984   1.410       .  A
C1983      H1992   1.082       .  S
C1984      C1987   1.486       .  S
C1984      C1985   1.402       .  A
C1985      C1986   1.400       .  A
C1985      H1993   1.083       .  S
C1986      H1994   1.083       .  S
C1987      H1995   1.087       .  S
C1987      C1988   1.341       .  D
C1988      H1996   1.086       .  S
C1989      H1997   1.087       .  S
C1989      C1990   1.338       .  D
C1990      H1998   1.087       .  S
C1999      C2007   1.489       .  S
C1999      C2000   1.404       .  A
C1999      C2004   1.406       .  A
C2000      C2001   1.401       .  A
C2000      H2009   1.083       .  S
C2001      C2002   1.410       .  A
C2001      H2010   1.080       .  S
C2002      C2005   1.494       .  S
C2002      C2003   1.406       .  A
C2003      C2004   1.400       .  A
C2003      H2011   1.083       .  S
C2004      H2012   1.082       .  S
C2005      H2013   1.087       .  S
C2005      C2006   1.349       .  D
C2006      H2014   1.083       .  S
C2007      H2015   1.087       .  S
C2007      C2008   1.349       .  D
C2008      H2016   1.086       .  S
C2017      C2025   1.497       .  S
C2017      C2018   1.402       .  A
C2017      C2022   1.411       .  A
C2018      C2019   1.402       .  A
C2018      H2027   1.083       .  S
C2019      C2020   1.411       .  A
C2019      H2028   1.081       .  S
C2020      C2023   1.493       .  S
C2020      C2021   1.403       .  A
C2021      C2022   1.400       .  A
C2021      H2029   1.084       .  S
C2022      H2030   1.082       .  S
C2023      H2031   1.087       .  S
C2023      C2024   1.346       .  D
C2024      H2032   1.085       .  S
C2025      H2033   1.086       .  S
C2025      C2026   1.344       .  D
C2026      H2034   1.086       .  S
C2035      C2043   1.485       .  S
C2035      C2036   1.410       .  A
C2035      C2040   1.399       .  A
C2036      C2037   1.398       .  A
C2036      H2045   1.082       .  S
C2037      C2038   1.405   1_545  A
C2037      H2046   1.080       .  S
C2038      C2041   1.486       .  S
C2038      C2039   1.407   1_565  A
C2039      C2040   1.397       .  A
C2039      H2047   1.083   1_545  S
C2040      H2048   1.083       .  S
C2041      H2049   1.087       .  S
C2041      C2042   1.352       .  D
C2042      H2050   1.083       .  S
C2043      H2051   1.087       .  S
C2043      C2044   1.340       .  D
C2044      H2052   1.086       .  S
C2053      C2061   1.482       .  S
C2053      C2054   1.401       .  A
C2053      C2058   1.408       .  A
C2054      C2055   1.396       .  A
C2054      H2063   1.083       .  S
C2055      C2056   1.407       .  A
C2055      H2064   1.082       .  S
C2056      C2059   1.481       .  S
C2056      C2057   1.401       .  A
C2057      C2058   1.397       .  A
C2057      H2065   1.083       .  S
C2058      H2066   1.082       .  S
C2059      H2067   1.087       .  S
C2059      C2060   1.341       .  D
C2060      H2068   1.086       .  S
C2061      H2069   1.087       .  S
C2061      C2062   1.341       .  D
C2062      H2070   1.086       .  S
C2071      C2079   1.489       .  S
C2071      C2072   1.405       .  A
C2071      C2076   1.408       .  A
C2072      C2073   1.399       .  A
C2072      H2081   1.084       .  S
C2073      C2074   1.408       .  A
C2073      H2082   1.080       .  S
C2074      C2077   1.488       .  S
C2074      C2075   1.403       .  A
C2075      C2076   1.396       .  A
C2075      H2083   1.083       .  S
C2076      H2084   1.079       .  S
C2077      H2085   1.087       .  S
C2077      C2078   1.347       .  D
C2078      H2086   1.083       .  S
C2079      H2087   1.087       .  S
C2079      C2080   1.349       .  D
C2080      H2088   1.082       .  S
C2089      C2097   1.493       .  S
C2089      C2090   1.410       .  A
C2089      C2094   1.404   1_655  A
C2090      C2091   1.407       .  A
C2090      H2099   1.081       .  S
C2091      C2092   1.412       .  A
C2091      H2100   1.081       .  S
C2092      C2095   1.494       .  S
C2092      C2093   1.402   1_655  A
C2093      C2094   1.395       .  A
C2093      H2101   1.083       .  S
C2094      H2102   1.083       .  S
C2095      H2103   1.087   1_655  S
C2095      C2096   1.347       .  D
C2096      H2104   1.084       .  S
C2097      H2105   1.087   1_655  S
C2097      C2098   1.351       .  D
C2098      H2106   1.084       .  S
C2107      C2115   1.477       .  S
C2107      C2108   1.401       .  A
C2107      C2112   1.406       .  A
C2108      C2109   1.397       .  A
C2108      H2117   1.083       .  S
C2109      C2110   1.408       .  A
C2109      H2118   1.081       .  S
C2110      C2113   1.478       .  S
C2110      C2111   1.401       .  A
C2111      C2112   1.392       .  A
C2111      H2119   1.084       .  S
C2112      H2120   1.082       .  S
C2113      H2121   1.087       .  S
C2113      C2114   1.343   1_565  D
C2114      H2122   1.084       .  S
C2115      H2123   1.087       .  S
C2115      C2116   1.342       .  D
C2116      H2124   1.086       .  S
C2125      C2133   1.489       .  S
C2125      C2126   1.403       .  A
C2125      C2130   1.409       .  A
C2126      C2127   1.398       .  A
C2126      H2135   1.083       .  S
C2127      C2128   1.409       .  A
C2127      H2136   1.082       .  S
C2128      C2131   1.489       .  S
C2128      C2129   1.403       .  A
C2129      C2130   1.400       .  A
C2129      H2137   1.083       .  S
C2130      H2138   1.081       .  S
C2131      H2139   1.087       .  S
C2131      C2132   1.343       .  D
C2132      H2140   1.085       .  S
C2133      H2141   1.087       .  S
C2133      C2134   1.346       .  D
C2134      H2142   1.085       .  S
C2143      C2151   1.491       .  S
C2143      C2144   1.402       .  A
C2143      C2148   1.410       .  A
C2144      C2145   1.400       .  A
C2144      H2153   1.083       .  S
C2145      C2146   1.410       .  A
C2145      H2154   1.081       .  S
C2146      C2149   1.492       .  S
C2146      C2147   1.402       .  A
C2147      C2148   1.399       .  A
C2147      H2155   1.083       .  S
C2148      H2156   1.081       .  S
C2149      H2157   1.087       .  S
C2149      C2150   1.345       .  D
C2150      H2158   1.085       .  S
C2151      H2159   1.087       .  S
C2151      C2152   1.343       .  D
C2152      H2160   1.085       .  S
