geometry optimzed in LAMMPS
_audit_creation_date              2020-11-30 
_audit_creation_method            'lammps2cif' 
_symmetry_space_group_name_H-M    'P1' 
_symmetry_Int_Tables_number       1 
_symmetry_cell_setting            triclinic 
loop_ 
_symmetry_equiv_pos_as_xyz 
  x,y,z 
_cell_length_a                    91.09047669 
_cell_length_b                    91.05389649484643 
_cell_length_c                    91.08899276265872 
_cell_angle_alpha                 90.02081395028392 
_cell_angle_beta                  89.97846366855676 
_cell_angle_gamma                 90.01140797312125 
loop_ 
_atom_site_label 
_atom_site_type_symbol 
_atom_site_fract_x 
_atom_site_fract_y 
_atom_site_fract_z 
_atom_site_charge 
In1        In  0.82099330  0.41524081  0.70083856     1.36900
C2          C  0.79767565  0.41617897  0.71849527     0.77800
O3          O  0.82460789  0.39435372  0.71335519    -0.60600
O4          O  0.84237641  0.40927956  0.71156429    -0.51500
C5          C  0.82244797  0.40054698  0.67551360     0.70500
O6          O  0.81046164  0.40376406  0.68163435    -0.46400
C7          C  0.82492898  0.44405682  0.69588590     0.75200
O8          O  0.79706555  0.41179894  0.70538621    -0.58300
O9          O  0.83322235  0.43660574  0.70405377    -0.48300
O10         O  0.81029047  0.42030808  0.72243971    -0.54700
C11         C  0.83783039  0.39709849  0.71639954     0.85400
O12         O  0.83361861  0.40572969  0.68182029    -0.56600
O13         O  0.81510862  0.43653329  0.68970327    -0.59900
In14       In  0.91502112  0.31698635  0.80124809     1.36900
C15         C  0.91725618  0.29320168  0.78432998     0.77800
O16         O  0.89643104  0.32029884  0.78546809    -0.60600
O17         O  0.91036969  0.33842348  0.78994615    -0.51500
C18         C  0.89926206  0.31906410  0.82598050     0.70500
O19         O  0.90583820  0.30745369  0.82229406    -0.46400
C20         C  0.94284104  0.32278262  0.80860711     0.75200
O21         O  0.90951444  0.29345795  0.79582956    -0.58300
O22         O  0.93562323  0.33035309  0.79959305    -0.48300
O23         O  0.92413778  0.30493333  0.78185614    -0.54700
C24         C  0.89936894  0.33362898  0.78299933     0.85400
O25         O  0.90105373  0.32957570  0.81721442    -0.56600
O26         O  0.93563585  0.31238310  0.81418671    -0.59900
In27       In  0.70409357  0.41529588  0.82100143     1.36900
C28         C  0.71866590  0.41516284  0.79556133     0.77800
O29         O  0.68922043  0.43504753  0.82251182    -0.60600
O30         O  0.71079435  0.43661225  0.83096798    -0.51500
C31         C  0.67904114  0.40018926  0.82198302     0.70500
O32         O  0.68253656  0.40816168  0.81120019    -0.46400
C33         C  0.72218475  0.40227570  0.83988209     0.75200
O34         O  0.71189339  0.40411381  0.80038129    -0.58300
O35         O  0.71269103  0.41154741  0.84376488    -0.48300
O36         O  0.71711143  0.42652619  0.80330087    -0.54700
C37         C  0.69865808  0.44290052  0.82894486     0.85400
O38         O  0.68838744  0.40011598  0.83212107    -0.56600
O39         O  0.72247185  0.39984438  0.82626752    -0.59900
In40       In  0.80232810  0.32478650  0.92441155     1.36900
C41         C  0.78507420  0.30117125  0.92663563     0.77800
O42         O  0.81505671  0.32250262  0.94548591    -0.60600
O43         O  0.79747956  0.33753688  0.94508977    -0.51500
C44         C  0.82746043  0.32299808  0.90940758     0.70500
O45         O  0.82088408  0.31196533  0.91451518    -0.46400
C46         C  0.78660671  0.34157127  0.90621047     0.75200
O47         O  0.79714446  0.30104722  0.91988949    -0.58300
O48         O  0.79431685  0.34684934  0.91644537    -0.48300
O49         O  0.78216958  0.31329851  0.93266434    -0.54700
C50         C  0.80737278  0.33150879  0.95262346     0.85400
O51         O  0.82158827  0.33507840  0.91281849    -0.56600
O52         O  0.78720277  0.32781082  0.90532849    -0.59900
In53       In  0.57966047  0.30387488  0.82065769     1.36900
C54         C  0.57783312  0.28833621  0.79594500     0.77800
O55         O  0.59289399  0.28414637  0.82715997    -0.60600
O56         O  0.58737808  0.29914119  0.84389403    -0.51500
C57         C  0.59627045  0.32805819  0.81965943     0.70500
O58         O  0.58436337  0.32751175  0.82666897    -0.46400
C59         C  0.55107757  0.30925790  0.82412597     0.75200
O60         O  0.58466987  0.30036978  0.79670715    -0.58300
O61         O  0.55858547  0.30223954  0.83341035    -0.48300
O62         O  0.57171778  0.28454051  0.80778744    -0.54700
C63         C  0.59376083  0.28732572  0.84054603     0.85400
O64         O  0.59928257  0.31637599  0.81289574    -0.56600
O65         O  0.55844826  0.31415887  0.81350052    -0.59900
In66       In  0.67952973  0.21062008  0.91925830     1.36900
C67         C  0.70341487  0.22718325  0.92118184     0.77800
O68         O  0.67326081  0.22462554  0.90010108    -0.60600
O69         O  0.65770293  0.22201503  0.91721021    -0.51500
C70         C  0.67784442  0.18619044  0.90301876     0.70500
O71         O  0.68734252  0.19602227  0.90104522    -0.46400
C72         C  0.67663377  0.20511409  0.94780049     0.75200
O73         O  0.70405255  0.21352554  0.91889059    -0.58300
O74         O  0.66631696  0.21012441  0.94007315    -0.48300
O75         O  0.69058829  0.23223805  0.92248782    -0.54700
C76         C  0.66069468  0.22773269  0.90495646     0.85400
O77         O  0.66953691  0.18859642  0.91378113    -0.56600
O78         O  0.68822936  0.20236005  0.94077211    -0.59900
In79       In  0.82261676  0.29394880  0.58605373     1.36900
C80         C  0.80023163  0.27507712  0.58495484     0.77800
O81         O  0.81461198  0.30001950  0.56348492    -0.60600
O82         O  0.83742628  0.29793488  0.56665075    -0.51500
C83         C  0.82104987  0.31957569  0.60068513     0.70500
O84         O  0.81103115  0.31007035  0.60069673    -0.46400
C85         C  0.84119123  0.27748530  0.60178878     0.75200
O86         O  0.79842187  0.28865150  0.58707872    -0.58300
O87         O  0.84249935  0.27939030  0.58815285    -0.48300
O88         O  0.81339083  0.27134318  0.58298821    -0.54700
C89         C  0.82717796  0.30037234  0.55771416     0.85400
O90         O  0.83193470  0.31604537  0.59287748    -0.56600
O91         O  0.83058292  0.28441304  0.60738355    -0.59900
In92       In  0.91285809  0.19434150  0.68760682     1.36900
C93         C  0.91417887  0.21013149  0.71220090     0.77800
O94         O  0.93412187  0.18222411  0.69058953    -0.60600
O95         O  0.93256413  0.19758002  0.67324887    -0.51500
C96         C  0.89467193  0.17150182  0.69063187     0.70500
O97         O  0.89374130  0.18300584  0.69822239    -0.46400
C98         C  0.90129122  0.21118427  0.66676661     0.75200
O99         O  0.90379716  0.21100068  0.70312542    -0.58300
O100        O  0.89923173  0.19749397  0.66734925    -0.48300
O101        O  0.92356383  0.20045895  0.70909768    -0.54700
C102        C  0.94059849  0.18878547  0.68024066     0.85400
O103        O  0.90552766  0.17130696  0.68204258    -0.56600
O104        O  0.90978415  0.21604207  0.67652354    -0.59900
In105      In  0.58390421  0.18518718  0.70229678     1.36900
C106        C  0.58185915  0.20840974  0.72021187     0.77800
O107        O  0.56216958  0.19189743  0.69281614    -0.60600
O108        O  0.56334574  0.17150339  0.70370475    -0.51500
C109        C  0.59955169  0.18530311  0.67723672     0.70500
O110        O  0.60073167  0.19496439  0.68704592    -0.46400
C111        C  0.59905555  0.16643884  0.71879205     0.75200
O112        O  0.58271338  0.20967213  0.70644185    -0.58300
O113        O  0.58683401  0.16323415  0.71314263    -0.48300
O114        O  0.58164833  0.19531628  0.72457757    -0.54700
C115        C  0.55534931  0.18067080  0.69712730     0.85400
O116        O  0.59018427  0.17556170  0.68016250    -0.56600
O117        O  0.60367391  0.17908645  0.71553977    -0.59900
In118      In  0.67526253  0.08781840  0.80506244     1.36900
C119        C  0.69732930  0.08412208  0.78645164     0.77800
O120        O  0.68291959  0.06760624  0.81674691    -0.60600
O121        O  0.66228760  0.06691050  0.80608260    -0.51500
C122        C  0.67438467  0.10482803  0.82870699     0.70500
O123        O  0.68604530  0.10247952  0.82163543    -0.46400
C124        C  0.65841169  0.10352551  0.78738436     0.75200
O125        O  0.69898553  0.09006937  0.79886955    -0.58300
O126        O  0.65356942  0.09253660  0.79432044    -0.48300
O127        O  0.68440617  0.07988740  0.78381310    -0.54700
C128        C  0.67193105  0.05999736  0.81317641     0.85400
O129        O  0.66339808  0.09781989  0.82412246    -0.56600
O130        O  0.67163709  0.10663489  0.78993138    -0.59900
In131      In  0.70031289  0.17719337  0.58163931     1.36900
C132        C  0.71896927  0.19980999  0.58138532     0.77800
O133        O  0.71740241  0.17152245  0.59834185    -0.60600
O134        O  0.70670574  0.15394790  0.58754950    -0.51500
C135        C  0.67499576  0.17968712  0.59658299     0.70500
O136        O  0.68146120  0.19044459  0.59081161    -0.46400
C137        C  0.69534968  0.17286277  0.55300473     0.75200
O138        O  0.70873537  0.19858242  0.59062974    -0.58300
O139        O  0.70276824  0.16416009  0.56076818    -0.48300
O140        O  0.71947654  0.18946596  0.57218010    -0.54700
C141        C  0.71634060  0.15784598  0.59670828     0.85400
O142        O  0.68116894  0.16756744  0.59406354    -0.56600
O143        O  0.68966411  0.18324696  0.56015171    -0.59900
In144      In  0.79133875  0.07773439  0.68344244     1.36900
C145        C  0.77354793  0.07687404  0.70667516     0.77800
O146        O  0.77385688  0.09388886  0.67721812    -0.60600
O147        O  0.78501147  0.08324529  0.65995793    -0.51500
C148        C  0.81591602  0.09375492  0.68542732     0.70500
O149        O  0.80834859  0.09009145  0.69642003    -0.46400
C150        C  0.79819429  0.04931052  0.68012295     0.75200
O151        O  0.78326808  0.08658769  0.70494098    -0.58300
O152        O  0.78812851  0.05562039  0.67307965    -0.48300
O153        O  0.77314339  0.06739071  0.69659950    -0.54700
C154        C  0.77518373  0.09230040  0.66358754     0.85400
O155        O  0.81117299  0.08862412  0.67349216    -0.56600
O156        O  0.80521853  0.05779157  0.68852800    -0.59900
In157      In  0.19945960  0.08468736  0.68301550     1.36900
C158        C  0.21940430  0.08408158  0.70440006     0.77800
O159        O  0.19312349  0.06355912  0.69360073    -0.60600
O160        O  0.19367596  0.06404796  0.67044499    -0.51500
C161        C  0.17544957  0.10112349  0.68543643     0.70500
O162        O  0.18678093  0.10314149  0.69308011    -0.46400
C163        C  0.21347616  0.09785372  0.66095944     0.75200
O164        O  0.20590464  0.08585267  0.70682788    -0.58300
O165        O  0.20651611  0.10469784  0.67073609    -0.48300
O166        O  0.22262732  0.08298905  0.69099122    -0.54700
C167        C  0.19188862  0.05639988  0.68187050     0.85400
O168        O  0.17617869  0.09020015  0.67693392    -0.56600
O169        O  0.21319956  0.08406723  0.66240687    -0.59900
In170      In  0.29560790  0.17923004  0.58470872     1.36900
C171        C  0.27879394  0.20320045  0.58700110     0.77800
O172        O  0.30713670  0.18423113  0.56332533    -0.60600
O173        O  0.29254764  0.16629360  0.56378289    -0.51500
C174        C  0.31940356  0.18212653  0.60167096     0.70500
O175        O  0.30874174  0.19090691  0.60200090    -0.46400
C176        C  0.27976362  0.15779818  0.59681106     0.75200
O177        O  0.27824672  0.19258404  0.59578469    -0.58300
O178        O  0.29326998  0.15949232  0.59928450    -0.48300
O179        O  0.28829269  0.20170964  0.57703587    -0.54700
C180        C  0.30094754  0.17415760  0.55612767     0.85400
O181        O  0.31822487  0.17219877  0.59207854    -0.56600
O182        O  0.27464411  0.16648419  0.58731538    -0.59900
In183      In  0.07800071  0.19886820  0.68547281     1.36900
C184        C  0.07741496  0.21712035  0.70839389     0.77800
O185        O  0.09828102  0.21113372  0.67920032    -0.60600
O186        O  0.08027931  0.21211291  0.66464977    -0.51500
C187        C  0.09270422  0.17357395  0.68548105     0.70500
O188        O  0.08849914  0.17988988  0.69703400    -0.46400
C189        C  0.04996418  0.19117640  0.68201653     0.75200
O190        O  0.08534645  0.20580936  0.70797328    -0.58300
O191        O  0.05752876  0.19653086  0.67173843    -0.48300
O192        O  0.06965979  0.21894030  0.69706645    -0.54700
C193        C  0.09325809  0.21614711  0.66735600     0.85400
O194        O  0.08879814  0.17995291  0.67386495    -0.56600
O195        O  0.05701766  0.18912013  0.69370584    -0.59900
In196      In  0.17644480  0.29785412  0.59154080     1.36900
C197        C  0.19952439  0.27976224  0.59063785     0.77800
O198        O  0.16461690  0.29002957  0.61162617    -0.60600
O199        O  0.15725823  0.28223824  0.59101314    -0.51500
C200        C  0.17707657  0.32193335  0.60837674     0.70500
O201        O  0.18584648  0.31132083  0.60979145    -0.46400
C202        C  0.17375085  0.30544011  0.56334979     0.75200
O203        O  0.20064309  0.29333903  0.59294125    -0.58300
O204        O  0.16305158  0.30141623  0.57113039    -0.48300
O205        O  0.18649355  0.27542585  0.58903783    -0.54700
C206        C  0.15568229  0.28202251  0.60475388     0.85400
O207        O  0.16818057  0.32042316  0.59785905    -0.56600
O208        O  0.18564597  0.30648844  0.57032469    -0.59900
In209      In  0.29388804  0.41377660  0.82809127     1.36900
C210        C  0.28009065  0.41176727  0.80236123     0.77800
O211        O  0.27190230  0.40722626  0.83724630    -0.60600
O212        O  0.29097167  0.40002293  0.84829722    -0.51500
C213        C  0.31885194  0.39867429  0.82723491     0.70500
O214        O  0.31086132  0.40049475  0.81608062    -0.46400
C215        C  0.29764269  0.44233374  0.83376023     0.75200
O216        O  0.28607853  0.42338128  0.80687325    -0.58300
O217        O  0.28704440  0.43502164  0.83881469    -0.48300
O218        O  0.28168087  0.40093312  0.81083896    -0.54700
C219        C  0.27721246  0.39944743  0.84737509     0.85400
O220        O  0.31440279  0.40520887  0.83859312    -0.56600
O221        O  0.30675469  0.43478282  0.82659892    -0.59900
In222      In  0.19841145  0.30886516  0.91860846     1.36900
C223        C  0.21631040  0.28593295  0.92060878     0.77800
O224        O  0.21003918  0.31707771  0.89839055    -0.60600
O225        O  0.21035508  0.33028853  0.91746673    -0.51500
C226        C  0.17364485  0.30963946  0.90332598     0.70500
O227        O  0.18246193  0.29900862  0.90272540    -0.46400
C228        C  0.19117891  0.31117862  0.94670494     0.75200
O229        O  0.20381193  0.28513141  0.91477941    -0.58300
O230        O  0.19748385  0.32130322  0.93972368    -0.48300
O231        O  0.21964198  0.29852699  0.92526710    -0.54700
C232        C  0.21426398  0.32886755  0.90430340     0.85400
O233        O  0.17726642  0.31959206  0.91221528    -0.56600
O234        O  0.18769407  0.30020462  0.93903360    -0.59900
In235      In  0.17738729  0.41933581  0.70940861     1.36900
C236        C  0.20224876  0.41740810  0.72482648     0.77800
O237        O  0.18607354  0.44053667  0.69998928    -0.60600
O238        O  0.16415672  0.44006219  0.70750414    -0.51500
C239        C  0.17700480  0.40004954  0.68725280     0.70500
O240        O  0.17765974  0.39647772  0.70056435    -0.46400
C241        C  0.15558995  0.40978227  0.72644216     0.75200
O242        O  0.20039166  0.41065234  0.71288578    -0.58300
O243        O  0.15382703  0.41277804  0.71305328    -0.48300
O244        O  0.19159621  0.42548016  0.72841217    -0.54700
C245        C  0.17440806  0.44766164  0.70219862     0.85400
O246        O  0.17696392  0.41375846  0.68514289    -0.56600
O247        O  0.16828605  0.41245106  0.73120800    -0.59900
In248      In  0.08102923  0.32109614  0.80129778     1.36900
C249        C  0.07993450  0.29831281  0.78301000     0.77800
O250        O  0.06122420  0.31948402  0.81590973    -0.60600
O251        O  0.05852264  0.32829395  0.79461305    -0.51500
C252        C  0.09767507  0.31691893  0.82480879     0.70500
O253        O  0.09728392  0.30814449  0.81413860    -0.46400
C254        C  0.09555004  0.34341079  0.78924296     0.75200
O255        O  0.07795591  0.29700168  0.79664960    -0.58300
O256        O  0.08328739  0.34509625  0.79547339    -0.48300
O257        O  0.08220207  0.31129586  0.77888682    -0.54700
C258        C  0.05250916  0.32467878  0.80653296     0.85400
O259        O  0.08914022  0.32776958  0.82364903    -0.56600
O260        O  0.10027906  0.33042697  0.78939156    -0.59900
In261      In  0.41311904  0.29580923  0.82325722     1.36900
C262        C  0.41571830  0.28168543  0.79777943     0.77800
O263        O  0.43319794  0.30912398  0.81739155    -0.60600
O264        O  0.43476007  0.29310311  0.83423872    -0.51500
C265        C  0.39530658  0.31906101  0.82509465     0.70500
O266        O  0.39267655  0.30802361  0.81718471    -0.46400
C267        C  0.40102164  0.27708654  0.84226696     0.75200
O268        O  0.40827197  0.29331412  0.79905004    -0.58300
O269        O  0.40877562  0.28779029  0.84636732    -0.48300
O270        O  0.42188645  0.27760247  0.80944436    -0.54700
C271        C  0.44131840  0.30243982  0.82642308     0.85400
O272        O  0.40724087  0.31822609  0.83201471    -0.56600
O273        O  0.39924723  0.27632533  0.82861805    -0.59900
In274      In  0.32140078  0.19567071  0.92229047     1.36900
C275        C  0.29747878  0.21238896  0.92367525     0.77800
O276        O  0.31782045  0.18167167  0.94227078    -0.60600
O277        O  0.33160900  0.20016508  0.94437270    -0.51500
C278        C  0.32138988  0.17209615  0.90502676     0.70500
O279        O  0.31090544  0.18108805  0.90568375    -0.46400
C280        C  0.34060162  0.21103591  0.90647832     0.75200
O281        O  0.29679413  0.19855844  0.92352206    -0.58300
O282        O  0.34413978  0.20457010  0.91821799    -0.48300
O283        O  0.31032774  0.21746170  0.92393055    -0.54700
C284        C  0.32572025  0.18931381  0.95064009     0.85400
O285        O  0.33176370  0.17485378  0.91375871    -0.56600
O286        O  0.32731408  0.20950959  0.90296497    -0.59900
In287      In  0.41636964  0.18137105  0.70185367     1.36900
C288        C  0.41479082  0.20523287  0.71902924     0.77800
O289        O  0.39630416  0.17223061  0.71239470    -0.60600
O290        O  0.41526262  0.15876767  0.71205123    -0.51500
C291        C  0.40032557  0.18214804  0.67720354     0.70500
O292        O  0.40232809  0.19325454  0.68524699    -0.46400
C293        C  0.44524342  0.17665511  0.69801568     0.75200
O294        O  0.41948423  0.20582627  0.70599868    -0.58300
O295        O  0.43684918  0.18056815  0.68775077    -0.48300
O296        O  0.41128006  0.19253438  0.72306407    -0.54700
C297        C  0.40203887  0.16017788  0.71597378     0.85400
O298        O  0.40721216  0.17092361  0.68143225    -0.56600
O299        O  0.43877418  0.17511104  0.71013199    -0.59900
In300      In  0.32269195  0.08197206  0.79883006     1.36900
C301        C  0.30063641  0.08154936  0.77951193     0.77800
O302        O  0.33181153  0.10254981  0.78889110    -0.60600
O303        O  0.34271708  0.08246465  0.78441426    -0.51500
C304        C  0.32281106  0.09679181  0.82405615     0.70500
O305        O  0.31131078  0.09417238  0.81683696    -0.46400
C306        C  0.32351158  0.05390192  0.80708854     0.75200
O307        O  0.30074077  0.08989924  0.79057394    -0.58300
O308        O  0.33489958  0.06076976  0.80317087    -0.48300
O309        O  0.31197582  0.07375648  0.77824801    -0.54700
C310        C  0.34214378  0.09614208  0.78230261     0.85400
O311        O  0.33430823  0.09128851  0.81862725    -0.56600
O312        O  0.31213402  0.06170207  0.80772997    -0.59900
In313      In  0.70012469  0.81662690  0.58831988     1.36900
C314        C  0.71766533  0.79387463  0.58339100     0.77800
O315        O  0.68842345  0.81030492  0.56754875    -0.60600
O316        O  0.70030417  0.83024332  0.56778948    -0.51500
C317        C  0.67732546  0.81524987  0.60669615     0.70500
O318        O  0.68783275  0.80631309  0.60693788    -0.46400
C319        C  0.71690441  0.83515850  0.60348402     0.75200
O320        O  0.70469515  0.79234011  0.58807821    -0.58300
O321        O  0.70781764  0.83952307  0.59399410    -0.48300
O322        O  0.72134336  0.80699031  0.58095525    -0.54700
C323        C  0.69287537  0.82124042  0.56033194     0.85400
O324        O  0.67806331  0.82446822  0.59640457    -0.56600
O325        O  0.71717545  0.82146670  0.60527650    -0.59900
In326      In  0.79621225  0.91106873  0.68977260     1.36900
C327        C  0.77699541  0.91259918  0.71167785     0.77800
O328        O  0.80229424  0.93301224  0.69923667    -0.60600
O329        O  0.79884397  0.93145597  0.67627844    -0.51500
C330        C  0.82183707  0.89672199  0.69090838     0.70500
O331        O  0.81115399  0.89381603  0.69918558    -0.46400
C332        C  0.78079147  0.89643821  0.66960446     0.75200
O333        O  0.79048104  0.91014436  0.71376221    -0.58300
O334        O  0.78541002  0.90932796  0.66763681    -0.48300
O335        O  0.77350704  0.91431367  0.69841663    -0.54700
C336        C  0.80188773  0.93957926  0.68706245     0.85400
O337        O  0.81944396  0.90713264  0.68216799    -0.56600
O338        O  0.78453635  0.89094715  0.68174450    -0.59900
In339      In  0.82206391  0.70221461  0.59014727     1.36900
C340        C  0.79763229  0.71844626  0.58998020     0.77800
O341        O  0.84309316  0.71527627  0.59129177    -0.60600
O342        O  0.83183735  0.71070418  0.61101504    -0.51500
C343        C  0.81887706  0.67655327  0.60385234     0.70500
O344        O  0.80817005  0.68462420  0.60042272    -0.46400
C345        C  0.82873519  0.69890990  0.56180385     0.75200
O346        O  0.80765667  0.72005546  0.59932833    -0.58300
O347        O  0.82744618  0.71126660  0.56791595    -0.48300
O348        O  0.79984767  0.70809152  0.58108752    -0.54700
C349        C  0.84261131  0.71695314  0.60501700     0.85400
O350        O  0.83118297  0.68138971  0.59972656    -0.56600
O351        O  0.82722204  0.68816621  0.57041468    -0.59900
In352      In  0.91740544  0.79847370  0.68945970     1.36900
C353        C  0.91387838  0.77946879  0.71143003     0.77800
O354        O  0.89707683  0.79079804  0.67814006    -0.60600
O355        O  0.91745522  0.78263690  0.67044296    -0.51500
C356        C  0.90417009  0.82445468  0.68941896     0.70500
O357        O  0.90684101  0.81739707  0.70101464    -0.46400
C358        C  0.94580537  0.80565195  0.68896190     0.75200
O359        O  0.90707094  0.79150515  0.71078347    -0.58300
O360        O  0.93835700  0.80399996  0.67741818    -0.48300
O361        O  0.92241959  0.77726171  0.70075470    -0.54700
C362        C  0.90366228  0.78265077  0.66913005     0.85400
O363        O  0.90891545  0.81846810  0.67786671    -0.56600
O364        O  0.93856109  0.80404300  0.70061562    -0.59900
In365      In  0.58732538  0.81932014  0.71222548     1.36900
C366        C  0.59005188  0.79466877  0.72754038     0.77800
O367        O  0.60737404  0.83025847  0.72081787    -0.60600
O368        O  0.58679931  0.84011913  0.72546759    -0.51500
C369        C  0.60164005  0.81922506  0.68688197     0.70500
O370        O  0.59944768  0.80773532  0.69431309    -0.46400
C371        C  0.55837266  0.82231092  0.70994521     0.75200
O372        O  0.58356068  0.79513716  0.71533729    -0.58300
O373        O  0.56492124  0.82080106  0.72198890    -0.48300
O374        O  0.59581034  0.80662187  0.73139945    -0.54700
C375        C  0.60052905  0.84041655  0.72723682     0.85400
O376        O  0.59569693  0.83060415  0.69205952    -0.56600
O377        O  0.56678359  0.82305162  0.69896824    -0.59900
In378      In  0.67832007  0.92132408  0.80934451     1.36900
C379        C  0.70183138  0.92119926  0.79201582     0.77800
O380        O  0.67387860  0.90088447  0.79656315    -0.60600
O381        O  0.65656745  0.91625362  0.79905280    -0.51500
C382        C  0.67680057  0.90754602  0.83495773     0.70500
O383        O  0.68880508  0.91186248  0.82955224    -0.46400
C384        C  0.67346915  0.94987908  0.81368877     0.75200
O385        O  0.70153212  0.91460538  0.80416707    -0.58300
O386        O  0.66674451  0.94235419  0.80427846    -0.48300
O387        O  0.69028355  0.92822134  0.78912646    -0.54700
C388        C  0.66075840  0.90416809  0.79372824     0.85400
O389        O  0.66563487  0.91123859  0.82770426    -0.56600
O390        O  0.68238287  0.94257647  0.82136392    -0.59900
In391      In  0.58662314  0.70052741  0.82960220     1.36900
C392        C  0.58788619  0.71732635  0.80577429     0.77800
O393        O  0.56592273  0.69087301  0.82005325    -0.60600
O394        O  0.56499113  0.69990152  0.84135988    -0.51500
C395        C  0.60113388  0.67524357  0.83334320     0.70500
O396        O  0.59682822  0.68299197  0.84395062    -0.46400
C397        C  0.60007456  0.71968943  0.84706704     0.75200
O398        O  0.59559740  0.70592216  0.80725863    -0.58300
O399        O  0.58749393  0.71459660  0.84982521    -0.48300
O400        O  0.57941467  0.71983851  0.81643087    -0.54700
C401        C  0.55803030  0.69399760  0.83098005     0.85400
O402        O  0.59747991  0.68019589  0.82096729    -0.56600
O403        O  0.60584876  0.71471436  0.83550790    -0.59900
In404      In  0.67684756  0.80414548  0.92716891     1.36900
C405        C  0.69933007  0.78600722  0.93209471     0.77800
O406        O  0.68091148  0.81733808  0.94760076    -0.60600
O407        O  0.66363225  0.80182309  0.94784468    -0.51500
C408        C  0.67871371  0.82855114  0.91109143     0.70500
O409        O  0.68865687  0.81895079  0.91141839    -0.46400
C410        C  0.65946163  0.78858774  0.90951004     0.75200
O411        O  0.70101351  0.79914224  0.92799206    -0.58300
O412        O  0.65453980  0.79565694  0.92037287    -0.48300
O413        O  0.68613208  0.78241779  0.93407897    -0.54700
C414        C  0.67094502  0.81116407  0.95496479     0.85400
O415        O  0.66797291  0.82579303  0.91938873    -0.56600
O416        O  0.67306045  0.78996012  0.90756556    -0.59900
In417      In  0.70305730  0.58103224  0.83231132     1.36900
C418        C  0.72113043  0.57886577  0.80952731     0.77800
O419        O  0.71811778  0.59948825  0.83813927    -0.60600
O420        O  0.71101437  0.58550964  0.85529308    -0.51500
C421        C  0.67829874  0.59690241  0.83229895     0.70500
O422        O  0.68858740  0.59879166  0.82325991    -0.46400
C423        C  0.69759258  0.55239221  0.83435122     0.75200
O424        O  0.70798127  0.58311173  0.80830388    -0.58300
O425        O  0.70408196  0.55947291  0.84433379    -0.48300
O426        O  0.72489123  0.57557702  0.82243297    -0.54700
C427        C  0.71858719  0.59651878  0.85161009     0.85400
O428        O  0.68045882  0.58647235  0.84110989    -0.56600
O429        O  0.69319492  0.56015704  0.82378016    -0.59900
In430      In  0.79242050  0.68301529  0.93191116     1.36900
C431        C  0.77654158  0.70758381  0.93198154     0.77800
O432        O  0.77615891  0.67742030  0.91446352    -0.60600
O433        O  0.78266313  0.66034754  0.92870947    -0.51500
C434        C  0.81724694  0.68266529  0.91649183     0.70500
O435        O  0.81137964  0.69423958  0.92123461    -0.46400
C436        C  0.79968773  0.67982913  0.96013949     0.75200
O437        O  0.78539740  0.70443215  0.92184739    -0.58300
O438        O  0.78848418  0.67401331  0.95448781    -0.48300
O439        O  0.77603760  0.69825885  0.94218643    -0.54700
C440        C  0.77480156  0.66414318  0.91795183     0.85400
O441        O  0.81063846  0.67106318  0.92022751    -0.56600
O442        O  0.80750557  0.68682892  0.95110749    -0.59900
In443      In  0.81262794  0.58225998  0.70537313     1.36900
C444        C  0.79077847  0.57793178  0.72410516     0.77800
O445        O  0.80509474  0.56054725  0.69658278    -0.60600
O446        O  0.82759494  0.56273196  0.70207137    -0.51500
C447        C  0.81153171  0.59784724  0.68045660     0.70500
O448        O  0.80076090  0.59657353  0.68902438    -0.46400
C449        C  0.82853914  0.59837140  0.72397600     0.75200
O450        O  0.78918989  0.58523156  0.71241597    -0.58300
O451        O  0.83369144  0.58723167  0.71755547    -0.48300
O452        O  0.80335437  0.57239617  0.72582729    -0.54700
C453        C  0.81744550  0.55438044  0.69769665     0.85400
O454        O  0.82275501  0.59087700  0.68449548    -0.56600
O455        O  0.81571399  0.60166362  0.72014564    -0.59900
In456      In  0.90496735  0.67868349  0.80863478     1.36900
C457        C  0.90699394  0.70103720  0.78956615     0.77800
O458        O  0.92660173  0.68336222  0.81972532    -0.60600
O459        O  0.92542365  0.66530298  0.80517548    -0.51500
C460        C  0.89003976  0.68072626  0.83382606     0.70500
O461        O  0.88894097  0.68992452  0.82357144    -0.46400
C462        C  0.88766250  0.65935961  0.79492566     0.75200
O463        O  0.90592017  0.70306369  0.80323060    -0.58300
O464        O  0.89982301  0.65579461  0.80048614    -0.48300
O465        O  0.90771854  0.68772235  0.78597251    -0.54700
C466        C  0.93326459  0.67277949  0.81377154     0.85400
O467        O  0.89909536  0.67056371  0.83135413    -0.56600
O468        O  0.88433794  0.67265554  0.79681669    -0.59900
In469      In  0.41912080  0.69612445  0.81834184     1.36900
C470        C  0.41937607  0.71152988  0.79351661     0.77800
O471        O  0.40243940  0.71262856  0.82566524    -0.60600
O472        O  0.41521816  0.70244370  0.84209825    -0.51500
C473        C  0.40331330  0.67140337  0.81525435     0.70500
O474        O  0.40717656  0.67922562  0.80456341    -0.46400
C475        C  0.44780962  0.69420374  0.82444846     0.75200
O476        O  0.42782339  0.70074826  0.79560995    -0.58300
O477        O  0.44090244  0.70616058  0.82402496    -0.48300
O478        O  0.41059111  0.71395935  0.80392768    -0.54700
C479        C  0.40515769  0.71149623  0.83916504     0.85400
O480        O  0.40795477  0.67602431  0.82741013    -0.56600
O481        O  0.43986552  0.68311353  0.82205924    -0.59900
In482      In  0.32374562  0.79314046  0.91756552     1.36900
C483        C  0.29867109  0.77797866  0.91645799     0.77800
O484        O  0.34695914  0.78530975  0.91334628    -0.60600
O485        O  0.32947343  0.77420013  0.90298419    -0.51500
C486        C  0.32361334  0.81813563  0.90239486     0.70500
O487        O  0.31248436  0.81332570  0.90905825    -0.46400
C488        C  0.32816380  0.79868394  0.94606252     0.75200
O489        O  0.30665312  0.77873805  0.92772414    -0.58300
O490        O  0.33194883  0.78692903  0.93983042    -0.48300
O491        O  0.30326662  0.78558707  0.90585134    -0.54700
C492        C  0.34313417  0.77502658  0.90488758     0.85400
O493        O  0.33491274  0.81024925  0.90368832    -0.56600
O494        O  0.32260332  0.80801279  0.93750305    -0.59900
In495      In  0.41972421  0.81923933  0.70721217     1.36900
C496        C  0.42133390  0.79371731  0.72111937     0.77800
O497        O  0.44146495  0.81269087  0.69787612    -0.60600
O498        O  0.44023046  0.83274666  0.70951485    -0.51500
C499        C  0.40142430  0.81944965  0.68447779     0.70500
O500        O  0.39809280  0.81453312  0.69692138    -0.46400
C501        C  0.40585654  0.83853181  0.72420849     0.75200
O502        O  0.41709848  0.79474688  0.70797498    -0.58300
O503        O  0.41264978  0.84241540  0.71276363    -0.48300
O504        O  0.42496664  0.80576332  0.72691546    -0.54700
C505        C  0.44830342  0.82354569  0.70306416     0.85400
O506        O  0.41456675  0.82367249  0.68330072    -0.56600
O507        O  0.40681723  0.82503277  0.72703807    -0.59900
In508      In  0.32014661  0.91551114  0.80392201     1.36900
C509        C  0.29652792  0.91906652  0.78709321     0.77800
O510        O  0.31538630  0.93608391  0.81689536    -0.60600
O511        O  0.33181081  0.93680699  0.80058564    -0.51500
C512        C  0.31933096  0.89894820  0.82797333     0.70500
O513        O  0.30941900  0.89883431  0.81833968    -0.46400
C514        C  0.33870432  0.89981761  0.78751853     0.75200
O515        O  0.29571804  0.91466201  0.80019887    -0.58300
O516        O  0.34288619  0.91043294  0.79537950    -0.48300
O517        O  0.30939091  0.92179794  0.78287286    -0.54700
C518        C  0.32447666  0.94386144  0.80991641     0.85400
O519        O  0.32960369  0.90786074  0.82539456    -0.56600
O520        O  0.32521863  0.89702870  0.78856643    -0.59900
In521      In  0.29995014  0.82266048  0.58918776     1.36900
C522        C  0.28089994  0.80088364  0.58643401     0.77800
O523        O  0.28427615  0.82838244  0.60721349    -0.60600
O524        O  0.29167207  0.84558248  0.59352683    -0.51500
C525        C  0.32398244  0.82249817  0.60589836     0.70500
O526        O  0.31614065  0.81127051  0.60384997    -0.46400
C527        C  0.30763818  0.82384642  0.56100740     0.75200
O528        O  0.29201723  0.80010409  0.59467994    -0.58300
O529        O  0.30006847  0.83365267  0.56721085    -0.48300
O530        O  0.27957687  0.81284810  0.57960348    -0.54700
C531        C  0.28386571  0.84190665  0.60435539     0.85400
O532        O  0.31992476  0.83356716  0.59868241    -0.56600
O533        O  0.31222413  0.81399537  0.56956511    -0.59900
In534      In  0.20140449  0.91858126  0.68686582     1.36900
C535        C  0.21712002  0.91933534  0.71143197     0.77800
O536        O  0.20860591  0.91324362  0.66383167    -0.60600
O537        O  0.22082695  0.90453805  0.68150380    -0.51500
C538        C  0.17771496  0.90139970  0.68782463     0.70500
O539        O  0.18256079  0.90808940  0.69890955    -0.46400
C540        C  0.19419670  0.94644794  0.68147915     0.75200
O541        O  0.21668617  0.92993818  0.70254158    -0.58300
O542        O  0.20528449  0.94026793  0.67599247    -0.48300
O543        O  0.20916644  0.90859412  0.70788321    -0.54700
C544        C  0.21929015  0.90540814  0.66779532     0.85400
O545        O  0.18463338  0.90410901  0.67615871    -0.56600
O546        O  0.18644429  0.93811142  0.68934240    -0.59900
In547      In  0.29848136  0.58052068  0.81891110     1.36900
C548        C  0.27981143  0.58472947  0.79681649     0.77800
O549        O  0.30341454  0.55741483  0.81128937    -0.60600
O550        O  0.30111856  0.56129418  0.83403912    -0.51500
C551        C  0.32387219  0.59483202  0.81428711     0.70500
O552        O  0.31262254  0.59657265  0.80649042    -0.46400
C553        C  0.28175733  0.59094160  0.84062295     0.75200
O554        O  0.28210599  0.59417091  0.80663667    -0.58300
O555        O  0.27816091  0.58022523  0.83268815    -0.48300
O556        O  0.28764558  0.57334446  0.79798669    -0.54700
C557        C  0.30323710  0.55197794  0.82404294     0.85400
O558        O  0.32229753  0.58530558  0.82415971    -0.56600
O559        O  0.29446045  0.59583549  0.83798234    -0.59900
In560      In  0.20102447  0.67779052  0.91253809     1.36900
C561        C  0.22066102  0.69968706  0.91328823     0.77800
O562        O  0.19215892  0.68782909  0.93310873    -0.60600
O563        O  0.19859037  0.66552804  0.93371777    -0.51500
C564        C  0.17566712  0.67817334  0.89772718     0.70500
O565        O  0.18616639  0.68675667  0.89503213    -0.46400
C566        C  0.21559140  0.65615363  0.89926939     0.75200
O567        O  0.20731847  0.70171127  0.91021119    -0.58300
O568        O  0.21288433  0.65624392  0.91282061    -0.48300
O569        O  0.22381580  0.68652415  0.91603354    -0.54700
C570        C  0.19383786  0.67644999  0.94077008     0.85400
O571        O  0.17822211  0.66935220  0.90807525    -0.56600
O572        O  0.21067846  0.66719668  0.89249370    -0.59900
In573      In  0.17905378  0.70493016  0.58786897     1.36900
C574        C  0.20165165  0.72362978  0.58643041     0.77800
O575        O  0.18550619  0.69236967  0.56746857    -0.60600
O576        O  0.16757917  0.70693470  0.56614510    -0.51500
C577        C  0.17867892  0.67994174  0.60345367     0.70500
O578        O  0.19035804  0.68676184  0.60046654    -0.46400
C579        C  0.16008620  0.72082190  0.60356266     0.75200
O580        O  0.20239164  0.71146680  0.59301591    -0.58300
O581        O  0.15629219  0.71374564  0.59227758    -0.48300
O582        O  0.18937779  0.72608358  0.58054017    -0.54700
C583        C  0.17587289  0.69817926  0.55941932     0.85400
O584        O  0.16736426  0.68567617  0.59798177    -0.56600
O585        O  0.17348841  0.71957019  0.60678129    -0.59900
In586      In  0.08410843  0.79803875  0.69192921     1.36900
C587        C  0.08147498  0.77963970  0.71443014     0.77800
O588        O  0.06378784  0.81000296  0.69937157    -0.60600
O589        O  0.06255307  0.79698121  0.68017456    -0.51500
C590        C  0.10110905  0.82181118  0.69158793     0.70500
O591        O  0.10129861  0.81254995  0.70185932    -0.46400
C592        C  0.09886889  0.78198903  0.67246962     0.75200
O593        O  0.08394823  0.79315560  0.71620626    -0.58300
O594        O  0.08721712  0.78876609  0.66920447    -0.48300
O595        O  0.08033537  0.77573992  0.70121119    -0.54700
C596        C  0.05584354  0.80504063  0.68920355     0.85400
O597        O  0.09181465  0.81910265  0.68173237    -0.56600
O598        O  0.10301667  0.78381520  0.68554084    -0.59900
In599      In  0.17291188  0.58742237  0.70702827     1.36900
C600        C  0.19630167  0.58801730  0.72461801     0.77800
O601        O  0.16237485  0.60683611  0.71795315    -0.60600
O602        O  0.14908262  0.58822603  0.71380478    -0.51500
C603        C  0.17584242  0.60307034  0.68241873     0.70500
O604        O  0.18433920  0.60429113  0.69326545    -0.46400
C605        C  0.17073639  0.55821780  0.70394135     0.75200
O606        O  0.18343248  0.59039085  0.72906964    -0.58300
O607        O  0.16680918  0.56503452  0.71529601    -0.48300
O608        O  0.19719278  0.58529923  0.71108881    -0.54700
C609        C  0.14995954  0.60090094  0.71932037     0.85400
O610        O  0.16586959  0.59360037  0.68411400    -0.56600
O611        O  0.17527538  0.56650349  0.69380974    -0.59900
In612      In  0.07121192  0.67508318  0.80662754     1.36900
C613        C  0.07149523  0.69872699  0.78912432     0.77800
O614        O  0.09162661  0.66766075  0.79536467    -0.60600
O615        O  0.07204061  0.65615045  0.79060030    -0.51500
C616        C  0.08768946  0.67392562  0.83098411     0.70500
O617        O  0.08276717  0.68577849  0.82580408    -0.46400
C618        C  0.04312024  0.67055974  0.81442269     0.75200
O619        O  0.07745242  0.69856923  0.80162057    -0.58300
O620        O  0.05174846  0.66026425  0.81120171    -0.48300
O621        O  0.06529521  0.68682951  0.78575926    -0.54700
C622        C  0.08566019  0.65736036  0.78834457     0.85400
O623        O  0.08312272  0.66267346  0.82438374    -0.56600
O624        O  0.04915074  0.68300959  0.81436794    -0.59900
In625      In  0.82568441  0.28994950  0.41997072     1.36900
C626        C  0.80199637  0.27292346  0.42200129     0.77800
O627        O  0.82976251  0.27479619  0.40107918    -0.60600
O628        O  0.84816768  0.28178412  0.41337815    -0.51500
C629        C  0.82427245  0.31530761  0.40573602     0.70500
O630        O  0.81333312  0.30968407  0.41208731    -0.46400
C631        C  0.83124315  0.29561425  0.44811727     0.75200
O632        O  0.81312820  0.27145483  0.43002047    -0.58300
O633        O  0.83673606  0.28485955  0.44137001    -0.48300
O634        O  0.80286303  0.28347237  0.41306837    -0.54700
C635        C  0.84346961  0.27424989  0.40271621     0.85400
O636        O  0.83603091  0.30812619  0.40708508    -0.56600
O637        O  0.82377285  0.30410636  0.44016553    -0.59900
In638      In  0.92448982  0.19862552  0.31734369     1.36900
C639        C  0.92683598  0.21558540  0.29363508     0.77800
O640        O  0.91966535  0.20862450  0.33945143    -0.60600
O641        O  0.90589360  0.21419333  0.32158680    -0.51500
C642        C  0.90930665  0.17363141  0.31730731     0.70500
O643        O  0.91405852  0.17960705  0.30577552    -0.46400
C644        C  0.95239323  0.19130940  0.32203298     0.75200
O645        O  0.91788045  0.20505075  0.29446087    -0.58300
O646        O  0.94615769  0.20185837  0.32845777    -0.48300
O647        O  0.93473039  0.21713704  0.30485806    -0.54700
C648        C  0.90882587  0.21600027  0.33496871     0.85400
O649        O  0.91263717  0.18035020  0.32896278    -0.56600
O650        O  0.94413446  0.18404962  0.31365865    -0.59900
In651      In  0.70738524  0.17137661  0.41430551     1.36900
C652        C  0.72398836  0.19554987  0.41482606     0.77800
O653        O  0.69336604  0.17132767  0.43464222    -0.60600
O654        O  0.71572966  0.16564568  0.43671905    -0.51500
C655        C  0.68231672  0.17250015  0.39919760     0.70500
O656        O  0.69174647  0.18265408  0.39890289    -0.46400
C657        C  0.72171145  0.14994542  0.40049955     0.75200
O658        O  0.71069337  0.19559856  0.41864776    -0.58300
O659        O  0.71679007  0.14847706  0.41336544    -0.48300
O660        O  0.72846239  0.18329327  0.41028573    -0.54700
C661        C  0.70370807  0.16786512  0.44315087     0.85400
O662        O  0.68577917  0.16185281  0.40731456    -0.56600
O663        O  0.71865789  0.16208592  0.39460128    -0.59900
In664      In  0.80703214  0.07952753  0.31771993     1.36900
C665        C  0.79091002  0.08380846  0.29353999     0.77800
O666        O  0.81945511  0.05878977  0.31236012    -0.60600
O667        O  0.80365110  0.05804132  0.32929090    -0.51500
C668        C  0.83177730  0.09519453  0.31610172     0.70500
O669        O  0.82167598  0.09591424  0.30668846    -0.46400
C670        C  0.79047000  0.08947125  0.33971544     0.75200
O671        O  0.79800746  0.07215412  0.29589425    -0.58300
O672        O  0.78571681  0.08104815  0.32983899    -0.48300
O673        O  0.79234635  0.09334567  0.30345887    -0.54700
C674        C  0.81316029  0.05113363  0.32200829     0.85400
O675        O  0.82935192  0.08610533  0.32624099    -0.56600
O676        O  0.80392568  0.09253229  0.33853828    -0.59900
In677      In  0.68581187  0.08440231  0.20245720     1.36900
C678        C  0.70907226  0.08553066  0.22015730     0.77800
O679        O  0.67828651  0.10316326  0.21632020    -0.60600
O680        O  0.66521597  0.08395051  0.21629711    -0.51500
C681        C  0.68446670  0.10093359  0.17800150     0.70500
O682        O  0.69626254  0.09567496  0.18291440    -0.46400
C683        C  0.68364713  0.05584336  0.19526273     0.75200
O684        O  0.70834500  0.09272156  0.20832352    -0.58300
O685        O  0.67269900  0.06414786  0.19669377    -0.48300
O686        O  0.69779685  0.07797553  0.22283368    -0.54700
C687        C  0.66692002  0.09685123  0.22103613     0.85400
O688        O  0.67331230  0.09692934  0.18510872    -0.56600
O689        O  0.69572745  0.06242720  0.19658112    -0.59900
In690      In  0.58376156  0.17367370  0.30206763     1.36900
C691        C  0.58364722  0.19656926  0.28381091     0.77800
O692        O  0.60532803  0.16482204  0.29449548    -0.60600
O693        O  0.58597296  0.15497021  0.28604674    -0.51500
C694        C  0.59876200  0.17374848  0.32711909     0.70500
O695        O  0.59680229  0.18512418  0.31950566    -0.46400
C696        C  0.55532644  0.16988695  0.30830665     0.75200
O697        O  0.58649950  0.19777621  0.29729697    -0.58300
O698        O  0.56363701  0.15941032  0.30482569    -0.48300
O699        O  0.58103636  0.18362019  0.27975941    -0.54700
C700        C  0.59982652  0.15511424  0.28631986     0.85400
O701        O  0.59230857  0.16246014  0.32232441    -0.56600
O702        O  0.56185361  0.18200357  0.30946104    -0.59900
In703      In  0.67658331  0.20741120  0.08682311     1.36900
C704        C  0.69936455  0.22562642  0.08427714     0.77800
O705        O  0.68361022  0.19676177  0.06583761    -0.60600
O706        O  0.66486049  0.21046742  0.06543194    -0.51500
C707        C  0.67891721  0.18343564  0.10383640     0.70500
O708        O  0.68452898  0.19566379  0.10707764    -0.46400
C709        C  0.65489006  0.22135590  0.10049112     0.75200
O710        O  0.70082578  0.21211963  0.08695942    -0.58300
O711        O  0.65248268  0.21169136  0.09084954    -0.48300
O712        O  0.68622895  0.22973179  0.08298269    -0.54700
C713        C  0.67375516  0.20271131  0.05818673     0.85400
O714        O  0.67222327  0.18347767  0.09173722    -0.56600
O715        O  0.66830330  0.22346436  0.10312853    -0.59900
In716      In  0.57778062  0.29602853  0.18734395     1.36900
C717        C  0.57600807  0.27867897  0.21075246     0.77800
O718        O  0.55740372  0.30610566  0.19637117    -0.60600
O719        O  0.55725759  0.29913501  0.17413032    -0.51500
C720        C  0.59602500  0.31873801  0.19027665     0.70500
O721        O  0.59994449  0.30560517  0.19211238    -0.46400
C722        C  0.58854106  0.27981369  0.16542187     0.75200
O723        O  0.58448201  0.28964704  0.21018318    -0.58300
O724        O  0.58440852  0.29290361  0.16356193    -0.48300
O725        O  0.56824362  0.27688901  0.19944777    -0.54700
C726        C  0.55012314  0.30451184  0.18473147     0.85400
O727        O  0.58270838  0.32021900  0.18693667    -0.56600
O728        O  0.58692531  0.27523913  0.17831032    -0.59900
In729      In  0.81990199  0.41016842  0.30536901     1.36900
C730        C  0.79788910  0.41242575  0.28628222     0.77800
O731        O  0.80978701  0.43126586  0.31293185    -0.60600
O732        O  0.83283586  0.43060708  0.31015295    -0.51500
C733        C  0.81880572  0.39467792  0.33026626     0.70500
O734        O  0.80935893  0.39356437  0.32022383    -0.46400
C735        C  0.84063201  0.39676914  0.28953551     0.75200
O736        O  0.79607478  0.40837982  0.29938869    -0.58300
O737        O  0.84093845  0.41024416  0.29261992    -0.48300
O738        O  0.81107104  0.41476678  0.28279057    -0.54700
C739        C  0.82169527  0.43824975  0.31312883     0.85400
O740        O  0.82874791  0.40389277  0.32756179    -0.56600
O741        O  0.82973090  0.39005035  0.29484993    -0.59900
In742      In  0.91917514  0.32076795  0.20329153     1.36900
C743        C  0.92111563  0.29647467  0.21949569     0.77800
O744        O  0.93901802  0.31927043  0.18841650    -0.60600
O745        O  0.94148670  0.32927119  0.20914304    -0.51500
C746        C  0.90181626  0.32031284  0.17993244     0.70500
O747        O  0.90296191  0.30974231  0.18876525    -0.46400
C748        C  0.90437678  0.34065833  0.21886792     0.75200
O749        O  0.92282006  0.29638362  0.20578611    -0.58300
O750        O  0.91749083  0.34262535  0.21481949    -0.48300
O751        O  0.91823442  0.30890733  0.22475860    -0.54700
C752        C  0.94768663  0.32501520  0.19753202     0.85400
O753        O  0.91035771  0.33093004  0.18258899    -0.56600
O754        O  0.89874027  0.32884631  0.21437316    -0.59900
In755      In  0.69581607  0.41583693  0.19142766     1.36900
C756        C  0.71591891  0.41804370  0.21248464     0.77800
O757        O  0.71144748  0.39791927  0.18577058    -0.60600
O758        O  0.70437282  0.41195654  0.16858884    -0.51500
C759        C  0.67193441  0.39886585  0.19246244     0.70500
O760        O  0.67916246  0.40240135  0.20368479    -0.46400
C761        C  0.68769492  0.44385097  0.18897572     0.75200
O762        O  0.70434901  0.41052470  0.21390575    -0.58300
O763        O  0.69362259  0.43679275  0.17866620    -0.48300
O764        O  0.71700500  0.42459130  0.20033222    -0.54700
C765        C  0.71232425  0.40127816  0.17240484     0.85400
O766        O  0.67662550  0.40456496  0.18078057    -0.56600
O767        O  0.68511084  0.43627286  0.20024187    -0.59900
In768      In  0.79563857  0.32582170  0.09019194     1.36900
C769        C  0.77789376  0.30292040  0.08644400     0.77800
O770        O  0.78150383  0.32962386  0.10983693    -0.60600
O771        O  0.78307717  0.34676127  0.09416919    -0.51500
C772        C  0.82057111  0.32599954  0.10556063     0.70500
O773        O  0.81468188  0.31437512  0.10092514    -0.46400
C774        C  0.80361031  0.33064585  0.06254629     0.75200
O775        O  0.78881122  0.30259742  0.09497198    -0.58300
O776        O  0.79748863  0.34032776  0.07030721    -0.48300
O777        O  0.77602869  0.31505907  0.08007346    -0.54700
C778        C  0.77746685  0.34229098  0.10602383     0.85400
O779        O  0.81393003  0.33752059  0.10184269    -0.56600
O780        O  0.80624642  0.31882601  0.06921316    -0.59900
In781      In  0.70568159  0.81862713  0.42271446     1.36900
C782        C  0.72068129  0.79336777  0.42276116     0.77800
O783        O  0.72481565  0.82405990  0.40811120    -0.60600
O784        O  0.71267333  0.84173333  0.41700113    -0.51500
C785        C  0.68138107  0.81821818  0.40644211     0.70500
O786        O  0.68518139  0.80749189  0.41435375    -0.46400
C787        C  0.69904544  0.82473265  0.45073985     0.75200
O788        O  0.72094812  0.80238035  0.43323999    -0.58300
O789        O  0.71144354  0.82713299  0.44510333    -0.48300
O790        O  0.71222288  0.79702142  0.41242585    -0.54700
C791        C  0.72306479  0.83775572  0.40875945     0.85400
O792        O  0.68985203  0.82912788  0.40724691    -0.56600
O793        O  0.68977345  0.81961421  0.44184862    -0.59900
In794      In  0.80574635  0.91371175  0.32538701     1.36900
C795        C  0.78749141  0.91584504  0.30268942     0.77800
O796        O  0.79425135  0.91194031  0.34722451    -0.60600
O797        O  0.79032884  0.89543498  0.33135291    -0.51500
C798        C  0.82964108  0.89674429  0.32664984     0.70500
O799        O  0.82367484  0.90036415  0.31472069    -0.46400
C800        C  0.81479872  0.94155685  0.32746721     0.75200
O801        O  0.78625091  0.92347226  0.31418086    -0.58300
O802        O  0.80817687  0.93503896  0.33771044    -0.48300
O803        O  0.79822140  0.90709048  0.30279321    -0.54700
C804        C  0.78773672  0.90012186  0.34411685     0.85400
O805        O  0.82381192  0.90236745  0.33784259    -0.56600
O806        O  0.81742361  0.93359669  0.31645875    -0.59900
In807      In  0.82305653  0.69890136  0.42358165     1.36900
C808        C  0.79917602  0.71584711  0.42146550     0.77800
O809        O  0.81494503  0.69359448  0.44612496    -0.60600
O810        O  0.83785911  0.69487674  0.44310655    -0.51500
C811        C  0.81939410  0.67594909  0.40583567     0.70500
O812        O  0.81640766  0.68895187  0.40222513    -0.46400
C813        C  0.84556927  0.71419817  0.41282083     0.75200
O814        O  0.79842654  0.70207696  0.42262449    -0.58300
O815        O  0.84335277  0.70091520  0.40957878    -0.48300
O816        O  0.81210307  0.72073571  0.42136938    -0.54700
C817        C  0.82741853  0.69302214  0.45196941     0.85400
O818        O  0.82418953  0.67462259  0.41877204    -0.56600
O819        O  0.83647820  0.71939683  0.42186593    -0.59900
In820      In  0.92119164  0.79235050  0.32681827     1.36900
C821        C  0.92137041  0.77299752  0.30513825     0.77800
O822        O  0.94072011  0.80429630  0.31770221    -0.60600
O823        O  0.94328477  0.79265546  0.33765592    -0.51500
C824        C  0.90553419  0.81697015  0.32603922     0.70500
O825        O  0.90839016  0.80940475  0.31484692    -0.46400
C826        C  0.90676030  0.77651065  0.34673931     0.75200
O827        O  0.91250338  0.78359347  0.30564867    -0.58300
O828        O  0.90272588  0.77776169  0.33361814    -0.48300
O829        O  0.93046726  0.77254141  0.31556546    -0.54700
C830        C  0.94929165  0.80028172  0.32777852     0.85400
O831        O  0.91144444  0.81235868  0.33767285    -0.56600
O832        O  0.91839318  0.78342521  0.34971762    -0.59900
In833      In  0.81899801  0.57531990  0.30987128     1.36900
C834        C  0.79516298  0.57582706  0.29296186     0.77800
O835        O  0.83919594  0.58880064  0.30653662    -0.60600
O836        O  0.83035896  0.57781672  0.28811931    -0.51500
C837        C  0.81687219  0.59293028  0.33320136     0.70500
O838        O  0.80707319  0.59215576  0.32344537    -0.46400
C839        C  0.82437403  0.54753964  0.31715616     0.75200
O840        O  0.80317579  0.58691683  0.29509123    -0.58300
O841        O  0.83181493  0.55451163  0.30779648    -0.48300
O842        O  0.79888157  0.56472300  0.30030803    -0.54700
C843        C  0.83997720  0.58647640  0.29293930     0.85400
O844        O  0.82728989  0.58404580  0.33134545    -0.56600
O845        O  0.81451999  0.55508005  0.32330192    -0.59900
In846      In  0.92284965  0.66667595  0.21516565     1.36900
C847        C  0.92316080  0.69047720  0.23214001     0.77800
O848        O  0.90282078  0.66239299  0.22846721    -0.60600
O849        O  0.91701888  0.64443325  0.22401237    -0.51500
C850        C  0.90704089  0.66761413  0.19069721     0.70500
O851        O  0.91244453  0.67889251  0.19664473    -0.46400
C852        C  0.95137373  0.66167222  0.20983464     0.75200
O853        O  0.92056517  0.69095957  0.21857998    -0.58300
O854        O  0.94287434  0.66727856  0.20052563    -0.48300
O855        O  0.92617768  0.67782128  0.23680745    -0.54700
C856        C  0.90538253  0.64891224  0.23013794     0.85400
O857        O  0.91019105  0.65568180  0.19701367    -0.56600
O858        O  0.94511833  0.65791521  0.22155536    -0.59900
In859      In  0.58941075  0.81618441  0.30196611     1.36900
C860        C  0.58923679  0.79336951  0.28344214     0.77800
O861        O  0.56831740  0.80831788  0.31214675    -0.60600
O862        O  0.56804478  0.82886674  0.30150368    -0.51500
C863        C  0.60463203  0.81580353  0.32705214     0.70500
O864        O  0.60560937  0.80589990  0.31744054    -0.46400
C865        C  0.60464569  0.83687381  0.28777981     0.75200
O866        O  0.59067455  0.79193153  0.29709127    -0.58300
O867        O  0.59088044  0.83733486  0.28922682    -0.48300
O868        O  0.58788058  0.80650277  0.27935432    -0.54700
C869        C  0.56077801  0.81923488  0.30823747     0.85400
O870        O  0.59534674  0.82560834  0.32401616    -0.56600
O871        O  0.61054928  0.82580956  0.29361558    -0.59900
In872      In  0.68542304  0.91770734  0.20784195     1.36900
C873        C  0.70707176  0.91950120  0.22739913     0.77800
O874        O  0.69389073  0.93871380  0.19804092    -0.60600
O875        O  0.67168475  0.93802799  0.20482451    -0.51500
C876        C  0.68795584  0.90204133  0.18343262     0.70500
O877        O  0.69748718  0.90203527  0.19343685    -0.46400
C878        C  0.66566698  0.90212238  0.22289805     0.75200
O879        O  0.70922925  0.91653176  0.21407063    -0.58300
O880        O  0.66522599  0.91594085  0.22202738    -0.48300
O881        O  0.69382728  0.92167625  0.23057384    -0.54700
C882        C  0.68200892  0.94558897  0.19956588     0.85400
O883        O  0.67708649  0.91032845  0.18581365    -0.56600
O884        O  0.67601430  0.89631551  0.21578690    -0.59900
In885      In  0.70464391  0.58104265  0.18698263     1.36900
C886        C  0.72219661  0.57919647  0.21022063     0.77800
O887        O  0.69089084  0.56129896  0.19246552    -0.60600
O888        O  0.70739484  0.55885537  0.17640188    -0.51500
C889        C  0.68015990  0.59675333  0.18823743     0.70500
O890        O  0.68908075  0.59581124  0.19873031    -0.46400
C891        C  0.71929631  0.59776382  0.16780513     0.75200
O892        O  0.70935674  0.58424126  0.21074508    -0.58300
O893        O  0.71244325  0.58632812  0.16408243    -0.48300
O894        O  0.72601529  0.57478657  0.19764531    -0.54700
C895        C  0.69736663  0.55276287  0.18372487     0.85400
O896        O  0.68352565  0.58910487  0.17718030    -0.56600
O897        O  0.71860966  0.60051625  0.18133296    -0.59900
In898      In  0.80462400  0.68164800  0.09703288     1.36900
C899        C  0.78670050  0.70456808  0.09440071     0.77800
O900        O  0.81510982  0.69178674  0.07705903    -0.60600
O901        O  0.80662198  0.67013717  0.07555264    -0.51500
C902        C  0.82853176  0.67919560  0.11401012     0.70500
O903        O  0.81893609  0.68899916  0.11584758    -0.46400
C904        C  0.78597918  0.66271236  0.10911994     0.75200
O905        O  0.79946322  0.70568759  0.09972733    -0.58300
O906        O  0.79351322  0.65948507  0.09795316    -0.48300
O907        O  0.78332615  0.69174033  0.09043431    -0.54700
C908        C  0.81255935  0.68079185  0.06902200     0.85400
O909        O  0.82597727  0.67091898  0.10326296    -0.56600
O910        O  0.78871993  0.67516374  0.11447079    -0.59900
In911      In  0.58728307  0.69921421  0.18095865     1.36900
C912        C  0.58646055  0.71621123  0.20463514     0.77800
O913        O  0.60454138  0.71586429  0.17596003    -0.60600
O914        O  0.59021252  0.70975224  0.15874936    -0.51500
C915        C  0.60323271  0.67466737  0.18045587     0.70500
O916        O  0.59733952  0.67971356  0.19188600    -0.46400
C917        C  0.55931716  0.69130303  0.17754390     0.75200
O918        O  0.59625052  0.70663118  0.20260515    -0.58300
O919        O  0.56598912  0.69953025  0.16865272    -0.48300
O920        O  0.57708923  0.71700150  0.19449430    -0.54700
C921        C  0.60088966  0.71764406  0.16276147     0.85400
O922        O  0.60048692  0.68196080  0.16905618    -0.56600
O923        O  0.56715114  0.68672930  0.18797621    -0.59900
In924      In  0.68557302  0.79958818  0.08940359     1.36900
C925        C  0.70978129  0.78349143  0.08744681     0.77800
O926        O  0.66281586  0.79566725  0.09843198    -0.60600
O927        O  0.67663306  0.77736582  0.09533871    -0.51500
C928        C  0.68921694  0.82207949  0.10788846     0.70500
O929        O  0.68947135  0.80886001  0.11192029    -0.46400
C930        C  0.68038043  0.80952026  0.06244542     0.75200
O931        O  0.70806625  0.79324194  0.09714047    -0.58300
O932        O  0.67049331  0.80396910  0.07041980    -0.48300
O933        O  0.69926921  0.78238143  0.07854567    -0.54700
C934        C  0.66437747  0.78195911  0.09968851     0.85400
O935        O  0.68702922  0.82374570  0.09433949    -0.56600
O936        O  0.69278012  0.81023143  0.06850109    -0.59900
In937      In  0.08661083  0.32034027  0.20690127     1.36900
C938        C  0.08642677  0.29856395  0.22620273     0.77800
O939        O  0.10727842  0.32753746  0.21799271    -0.60600
O940        O  0.08840063  0.34079774  0.22087439    -0.51500
C941        C  0.10201377  0.31994553  0.18182850     0.70500
O942        O  0.09955464  0.30860793  0.18935627    -0.46400
C943        C  0.05823085  0.32296889  0.19950058     0.75200
O944        O  0.09140541  0.29707861  0.21336000    -0.58300
O945        O  0.06623495  0.33377161  0.20273223    -0.48300
O946        O  0.08117105  0.31106237  0.22891471    -0.54700
C947        C  0.10178563  0.33880162  0.22384304     0.85400
O948        O  0.09601873  0.33137812  0.18681653    -0.56600
O949        O  0.06496591  0.31089133  0.19953692    -0.59900
In950      In  0.18520422  0.41453771  0.30701499     1.36900
C951        C  0.20714183  0.41458470  0.28756364     0.77800
O952        O  0.17648254  0.39387543  0.29666780    -0.60600
O953        O  0.16436754  0.41338057  0.29367372    -0.51500
C954        C  0.18460322  0.39976517  0.33236974     0.70500
O955        O  0.19642571  0.40291342  0.32587564    -0.46400
C956        C  0.18316943  0.44293083  0.31439205     0.75200
O957        O  0.20713984  0.40645481  0.29876824    -0.58300
O958        O  0.17252490  0.43555754  0.30950020    -0.48300
O959        O  0.19588222  0.42248829  0.28630671    -0.54700
C960        C  0.16528307  0.39981086  0.29111027     0.85400
O961        O  0.17332307  0.40511723  0.32644227    -0.56600
O962        O  0.19466415  0.43549091  0.31634577    -0.59900
In963      In  0.20239828  0.31408352  0.08477079     1.36900
C964        C  0.21944148  0.29024234  0.08389934     0.77800
O965        O  0.18877485  0.30879074  0.06482302    -0.60600
O966        O  0.20654469  0.32351822  0.06255550    -0.51500
C967        C  0.17925723  0.31433411  0.10291484     0.70500
O968        O  0.18982447  0.30552414  0.10406148    -0.46400
C969        C  0.21697956  0.33573657  0.09781001     0.75200
O970        O  0.20571873  0.28959881  0.08553226    -0.58300
O971        O  0.20962423  0.33767353  0.08626166    -0.48300
O972        O  0.22433094  0.30305963  0.08212598    -0.54700
C973        C  0.19622767  0.31680236  0.05631104     0.85400
O974        O  0.18017905  0.32271992  0.09192504    -0.56600
O975        O  0.21676570  0.32273796  0.10253937    -0.59900
In976      In  0.29439501  0.41602710  0.17902825     1.36900
C977        C  0.27857538  0.41339517  0.20351322     0.77800
O978        O  0.29899274  0.43840189  0.18798660    -0.60600
O979        O  0.29837820  0.43613947  0.16499624    -0.51500
C980        C  0.31822031  0.39908712  0.18088564     0.70500
O981        O  0.30601598  0.39579723  0.18646462    -0.46400
C982        C  0.27773106  0.40469367  0.15793020     0.75200
O983        O  0.27311552  0.41262538  0.19083550    -0.58300
O984        O  0.27383398  0.41554742  0.16555720    -0.48300
O985        O  0.29229242  0.41518746  0.20361262    -0.54700
C986        C  0.29971504  0.44472924  0.17577034     0.85400
O987        O  0.31828301  0.41130089  0.17430572    -0.56600
O988        O  0.29057997  0.40024676  0.16048624    -0.59900
In989      In  0.31970708  0.19405613  0.08852284     1.36900
C990        C  0.29554709  0.21078936  0.08911007     0.77800
O991        O  0.33626026  0.20010570  0.10543154    -0.60600
O992        O  0.33482825  0.21351105  0.08646799    -0.51500
C993        C  0.31991348  0.17083717  0.10652193     0.70500
O994        O  0.31140923  0.18161303  0.10824572    -0.46400
C995        C  0.32404268  0.18652073  0.06048020     0.75200
O996        O  0.30778055  0.21491850  0.09398246    -0.58300
O997        O  0.33404884  0.19179305  0.06843042    -0.48300
O998        O  0.29547798  0.19778999  0.08438923    -0.54700
C999        C  0.34082814  0.21134974  0.09876923     0.85400
O1000       O  0.32776854  0.17164164  0.09515510    -0.56600
O1001       O  0.31204741  0.18463724  0.06709472    -0.59900
In1002     In  0.41328447  0.29764158  0.18016564     1.36900
C1003       C  0.41531226  0.27975513  0.20331520     0.77800
O1004       O  0.39461887  0.28268721  0.17459916    -0.60600
O1005       O  0.40998700  0.28753524  0.15790038    -0.51500
C1006       C  0.39753184  0.32235648  0.17938960     0.70500
O1007       O  0.40101825  0.31601020  0.19118933    -0.46400
C1008       C  0.44132463  0.30507646  0.17681387     0.75200
O1009       O  0.40714491  0.29094713  0.20322260    -0.58300
O1010       O  0.43509455  0.29545866  0.16909109    -0.48300
O1011       O  0.42240999  0.27795131  0.19161596    -0.54700
C1012       C  0.39858097  0.28056136  0.16152586     0.85400
O1013       O  0.40256480  0.31624257  0.16804874    -0.56600
O1014       O  0.43300809  0.31144438  0.18584757    -0.59900
In1015     In  0.32492306  0.07235174  0.20416131     1.36900
C1016       C  0.30099745  0.07287253  0.22107154     0.77800
O1017       O  0.32417580  0.05200146  0.19001450    -0.60600
O1018       O  0.33191387  0.04987315  0.21167744    -0.51500
C1019       C  0.32420359  0.08827496  0.17968062     0.70500
O1020       O  0.31297188  0.08571230  0.18734270    -0.46400
C1021       C  0.34520864  0.08747702  0.21870450     0.75200
O1022       O  0.30044596  0.07024887  0.20751203    -0.58300
O1023       O  0.34737722  0.07452143  0.21422249    -0.48300
O1024       O  0.31374382  0.07521195  0.22580787    -0.54700
C1025       C  0.32864969  0.04344945  0.19988506     0.85400
O1026       O  0.33574723  0.08211556  0.18424481    -0.56600
O1027       O  0.33290038  0.09276748  0.21520697    -0.59900
In1028     In  0.41701954  0.17642657  0.29639600     1.36900
C1029       C  0.41556638  0.20098507  0.28045219     0.77800
O1030       O  0.43756576  0.18085006  0.30919226    -0.60600
O1031       O  0.43840916  0.16463496  0.29263721    -0.51500
C1032       C  0.39942835  0.17928761  0.31969909     0.70500
O1033       O  0.39753824  0.18620287  0.30788788    -0.46400
C1034       C  0.40686649  0.15366338  0.28121668     0.75200
O1035       O  0.40698811  0.19027862  0.27873478    -0.58300
O1036       O  0.40446424  0.15530735  0.29476020    -0.48300
O1037       O  0.42477199  0.19918865  0.29059813    -0.54700
C1038       C  0.44527918  0.17159742  0.30241567     0.85400
O1039       O  0.41054342  0.17103000  0.31964474    -0.56600
O1040       O  0.41489578  0.16344902  0.27564405    -0.59900
In1041     In  0.20482317  0.07862639  0.32098775     1.36900
C1042       C  0.22170917  0.07555866  0.29735724     0.77800
O1043       O  0.22109050  0.09644924  0.32481582    -0.60600
O1044       O  0.21429160  0.08395270  0.34320292    -0.51500
C1045       C  0.18085708  0.09506073  0.32142902     0.70500
O1046       O  0.18634248  0.09015853  0.30971780    -0.46400
C1047       C  0.19655887  0.05112398  0.32609063     0.75200
O1048       O  0.21142981  0.08481687  0.29806743    -0.58300
O1049       O  0.20657055  0.05748794  0.33321660    -0.48300
O1050       O  0.22320233  0.06783413  0.30873606    -0.54700
C1051       C  0.22218964  0.09427693  0.33840820     0.85400
O1052       O  0.18738687  0.09102098  0.33292103    -0.56600
O1053       O  0.19037262  0.05910697  0.31665061    -0.59900
In1054     In  0.30043554  0.17911623  0.41709097     1.36900
C1055       C  0.28300720  0.20236990  0.42048426     0.77800
O1056       O  0.28552011  0.17450282  0.39811536    -0.60600
O1057       O  0.29164971  0.15665207  0.41163941    -0.51500
C1058       C  0.32523322  0.17989867  0.40137500     0.70500
O1059       O  0.31585252  0.19004461  0.40135929    -0.46400
C1060       C  0.30550307  0.17546252  0.44561492     0.75200
O1061       O  0.29601779  0.20334181  0.41586891    -0.58300
O1062       O  0.29848060  0.16619570  0.43811709    -0.48300
O1063       O  0.27899457  0.18940734  0.42329812    -0.54700
C1064       C  0.28423726  0.16100476  0.40078615     0.85400
O1065       O  0.32214707  0.16946955  0.40992163    -0.56600
O1066       O  0.31089039  0.18587101  0.43828120    -0.59900
In1067     In  0.08920175  0.19968164  0.32368695     1.36900
C1068       C  0.08666952  0.21867884  0.30185068     0.77800
O1069       O  0.07010467  0.18839343  0.31316100    -0.60600
O1070       O  0.06782224  0.19569427  0.33510471    -0.51500
C1071       C  0.10598851  0.17579850  0.32342281     0.70500
O1072       O  0.10585239  0.18507922  0.31319124    -0.46400
C1073       C  0.10239946  0.21654888  0.34360202     0.75200
O1074       O  0.09469750  0.20743355  0.30112393    -0.58300
O1075       O  0.08984533  0.21108237  0.34562934    -0.48300
O1076       O  0.07980815  0.22015388  0.31377568    -0.54700
C1077       C  0.06174750  0.18993139  0.32406775     0.85400
O1078       O  0.09725811  0.17862569  0.33377693    -0.56600
O1079       O  0.10814285  0.21313172  0.33152854    -0.59900
In1080     In  0.18074866  0.29640609  0.42536864     1.36900
C1081       C  0.20549107  0.28071244  0.42436959     0.77800
O1082       O  0.18318599  0.31030638  0.44562594    -0.60600
O1083       O  0.16893276  0.29197002  0.44645830    -0.51500
C1084       C  0.18392254  0.32084202  0.40948787     0.70500
O1085       O  0.19385512  0.31129492  0.41074326    -0.46400
C1086       C  0.15984268  0.27999602  0.41276683     0.75200
O1087       O  0.19778863  0.28350875  0.41323993    -0.58300
O1088       O  0.16945151  0.27477195  0.42120763    -0.48300
O1089       O  0.20070737  0.28641533  0.43604615    -0.54700
C1090       C  0.17473800  0.30249636  0.45329900     0.85400
O1091       O  0.17255440  0.31812994  0.41693517    -0.56600
O1092       O  0.16074953  0.29368015  0.41116553    -0.59900
In1093     In  0.42285510  0.80932443  0.30713360     1.36900
C1094       C  0.42399219  0.78643885  0.28880163     0.77800
O1095       O  0.40225282  0.81765953  0.29670358    -0.60600
O1096       O  0.42207556  0.82894275  0.29213236    -0.51500
C1097       C  0.40606267  0.80948780  0.33120247     0.70500
O1098       O  0.40875540  0.79807292  0.32389845    -0.46400
C1099       C  0.45103651  0.81264160  0.31469110     0.75200
O1100       O  0.41876116  0.78549516  0.30156386    -0.58300
O1101       O  0.44309944  0.82326088  0.31078298    -0.48300
O1102       O  0.42854854  0.79908246  0.28552166    -0.54700
C1103       C  0.40842749  0.82810206  0.29005479     0.85400
O1104       O  0.41272998  0.82075665  0.32666500    -0.56600
O1105       O  0.44417843  0.80072771  0.31605990    -0.59900
In1106     In  0.32576448  0.90466491  0.20824138     1.36900
C1107       C  0.30422162  0.90723132  0.22757845     0.77800
O1108       O  0.33188417  0.88457844  0.22082798    -0.60600
O1109       O  0.34779470  0.90137086  0.21892476    -0.51500
C1110       C  0.32444157  0.89010951  0.18282331     0.70500
O1111       O  0.31352953  0.89195375  0.19108045    -0.46400
C1112       C  0.32816973  0.93286366  0.20123997     0.75200
O1113       O  0.30370951  0.89827091  0.21703534    -0.58300
O1114       O  0.33868163  0.92554035  0.20647941    -0.48300
O1115       O  0.31593251  0.91454219  0.22845752    -0.54700
C1116       C  0.34462683  0.88886100  0.22393556     0.85400
O1117       O  0.33594099  0.89637046  0.18731171    -0.56600
O1118       O  0.31668481  0.92549385  0.19886833    -0.59900
In1119     In  0.42088576  0.69710158  0.18196297     1.36900
C1120       C  0.42272664  0.71432243  0.20550658     0.77800
O1121       O  0.44114100  0.68336316  0.18561212    -0.60600
O1122       O  0.44298351  0.70241566  0.17250934    -0.51500
C1123       C  0.40297286  0.67394291  0.18433370     0.70500
O1124       O  0.40192870  0.68522075  0.19227594    -0.46400
C1125       C  0.40698346  0.71118307  0.16039676     0.75200
O1126       O  0.42172774  0.70053842  0.20644543    -0.58300
O1127       O  0.41749095  0.70247718  0.15796910    -0.48300
O1128       O  0.42328961  0.71909467  0.19256001    -0.54700
C1129       C  0.44942756  0.69157760  0.17817444     0.85400
O1130       O  0.41342264  0.67444227  0.17526534    -0.56600
O1131       O  0.40363255  0.71231477  0.17373695    -0.59900
In1132     In  0.32721277  0.79153732  0.08399894     1.36900
C1133       C  0.30223321  0.77616664  0.08523776     0.77800
O1134       O  0.31848205  0.79959003  0.06260730    -0.60600
O1135       O  0.34125553  0.79564196  0.06395036    -0.51500
C1136       C  0.32637976  0.81427798  0.10254039     0.70500
O1137       O  0.32771335  0.80111918  0.10663479    -0.46400
C1138       C  0.34908991  0.77405370  0.09276435     0.75200
O1139       O  0.30388238  0.78812264  0.09204706    -0.58300
O1140       O  0.35075314  0.78762901  0.09064795    -0.48300
O1141       O  0.31332685  0.77223112  0.07796324    -0.54700
C1142       C  0.33060734  0.79952759  0.05603370     0.85400
O1143       O  0.32532549  0.81575731  0.08883689    -0.56600
O1144       O  0.33631692  0.76950908  0.09003823    -0.59900
In1145     In  0.20251714  0.68010786  0.07889055     1.36900
C1146       C  0.21902638  0.70427932  0.07917711     0.77800
O1147       O  0.22048609  0.67446641  0.09465541    -0.60600
O1148       O  0.20926404  0.65693964  0.08433677    -0.51500
C1149       C  0.17748552  0.67946933  0.09410028     0.70500
O1150       O  0.18335565  0.69125994  0.08979793    -0.46400
C1151       C  0.19670667  0.67618930  0.05055503     0.75200
O1152       O  0.20960682  0.70153986  0.08898434    -0.58300
O1153       O  0.20687893  0.66954664  0.05715730    -0.48300
O1154       O  0.21967565  0.69475279  0.06916017    -0.54700
C1155       C  0.21900614  0.66078846  0.09336042     0.85400
O1156       O  0.18416891  0.66810301  0.09002485    -0.56600
O1157       O  0.18930460  0.68467592  0.05859674    -0.59900
In1158     In  0.29716430  0.58319747  0.17872941     1.36900
C1159       C  0.28314066  0.58305319  0.20422240     0.77800
O1160       O  0.27684327  0.59578286  0.17280776    -0.60600
O1161       O  0.29188352  0.59066445  0.15588455    -0.51500
C1162       C  0.32164007  0.59907508  0.18149128     0.70500
O1163       O  0.31514361  0.59325518  0.19217308    -0.46400
C1164       C  0.30095515  0.55492946  0.17203197     0.75200
O1165       O  0.28562622  0.59466901  0.19708991    -0.58300
O1166       O  0.28933998  0.56191406  0.16923632    -0.48300
O1167       O  0.28803642  0.57155398  0.19829303    -0.54700
C1168       C  0.28004688  0.59689595  0.15940887     0.85400
O1169       O  0.31589921  0.59617983  0.16925765    -0.56600
O1170       O  0.31094110  0.56268649  0.17765571    -0.59900
In1171     In  0.08929649  0.67798423  0.20166582     1.36900
C1172       C  0.09126136  0.70351716  0.21577420     0.77800
O1173       O  0.06686464  0.68239323  0.19241334    -0.60600
O1174       O  0.06926173  0.66500052  0.20759644    -0.51500
C1175       C  0.10524463  0.67906884  0.17706310     0.70500
O1176       O  0.10736920  0.68727920  0.18792402    -0.46400
C1177       C  0.10085246  0.65774778  0.21920114     0.75200
O1178       O  0.10118800  0.69388250  0.21602602    -0.58300
O1179       O  0.09568060  0.66972035  0.22378519    -0.48300
O1180       O  0.08052126  0.70033378  0.20763708    -0.54700
C1181       C  0.06064421  0.67245332  0.19976927     0.85400
O1182       O  0.09440693  0.67059297  0.17844751    -0.56600
O1183       O  0.09974624  0.65586082  0.20551833    -0.59900
In1184     In  0.18385242  0.58089497  0.30065749     1.36900
C1185       C  0.20796526  0.57933574  0.28417824     0.77800
O1186       O  0.18863152  0.56068064  0.31424845    -0.60600
O1187       O  0.17310767  0.55901906  0.29714835    -0.51500
C1188       C  0.18454919  0.59810502  0.32435491     0.70500
O1189       O  0.19469683  0.59746320  0.31503635    -0.46400
C1190       C  0.16497916  0.59580848  0.28383819     0.75200
O1191       O  0.20789443  0.58483015  0.29686290    -0.58300
O1192       O  0.16085325  0.58605800  0.29275552    -0.48300
O1193       O  0.19581102  0.57391886  0.28033556    -0.54700
C1194       C  0.17999555  0.55248813  0.30716514     0.85400
O1195       O  0.17406317  0.58938628  0.32186296    -0.56600
O1196       O  0.17856141  0.59811753  0.28403014    -0.59900
In1197     In  0.30076474  0.81913898  0.42172990     1.36900
C1198       C  0.28378117  0.79531809  0.42120095     0.77800
O1199       O  0.31500049  0.82045637  0.44197520    -0.60600
O1200       O  0.29202249  0.82281109  0.44425852    -0.51500
C1201       C  0.32514409  0.81555567  0.40623858     0.70500
O1202       O  0.31438744  0.80687025  0.40555477    -0.46400
C1203       C  0.28837628  0.84235486  0.40877167     0.75200
O1204       O  0.29664411  0.79523795  0.42624450    -0.58300
O1205       O  0.29039743  0.84167476  0.42242407    -0.48300
O1206       O  0.27986131  0.80754683  0.41605069    -0.54700
C1207       C  0.30428433  0.82230825  0.45058406     0.85400
O1208       O  0.32363989  0.82589946  0.41535717    -0.56600
O1209       O  0.29313366  0.83140868  0.40182212    -0.59900
In1210     In  0.20458430  0.91395069  0.32520393     1.36900
C1211       C  0.22394921  0.91467869  0.30318455     0.77800
O1212       O  0.19560441  0.93421366  0.31429346    -0.60600
O1213       O  0.19861353  0.93464013  0.33724893    -0.51500
C1214       C  0.18103866  0.89648314  0.32483221     0.70500
O1215       O  0.19061029  0.89661898  0.31485868    -0.46400
C1216       C  0.22110702  0.90174891  0.34614322     0.75200
O1217       O  0.22666254  0.91978457  0.31576749    -0.58300
O1218       O  0.21535297  0.89452242  0.33584676    -0.48300
O1219       O  0.21126036  0.90933809  0.30196256    -0.54700
C1220       C  0.19509278  0.94170616  0.32589117     0.85400
O1221       O  0.18322048  0.90582872  0.33480569    -0.56600
O1222       O  0.21810382  0.91523913  0.34583775    -0.59900
In1223     In  0.18412301  0.69819371  0.42141358     1.36900
C1224       C  0.20687235  0.71631626  0.42404754     0.77800
O1225       O  0.18019980  0.71307190  0.40225984    -0.60600
O1226       O  0.16243886  0.70917037  0.41672989    -0.51500
C1227       C  0.18357548  0.67382995  0.40497161     0.70500
O1228       O  0.19521822  0.68072754  0.40780116    -0.46400
C1229       C  0.18068000  0.69138524  0.44973897     0.75200
O1230       O  0.20774474  0.70405215  0.41762941    -0.58300
O1231       O  0.17075542  0.69752166  0.44231948    -0.48300
O1232       O  0.19434274  0.71917095  0.42920689    -0.54700
C1233       C  0.16701424  0.71572909  0.40541143     0.85400
O1234       O  0.17240197  0.67890140  0.41132278    -0.56600
O1235       O  0.19183257  0.68778586  0.44240868    -0.59900
In1236     In  0.08705003  0.79340488  0.32135847     1.36900
C1237       C  0.08588264  0.77689312  0.29729162     0.77800
O1238       O  0.10448384  0.77667173  0.32572792    -0.60600
O1239       O  0.09224001  0.78457441  0.34385579    -0.51500
C1240       C  0.10328385  0.81774918  0.32240237     0.70500
O1241       O  0.09786250  0.81290785  0.31061953    -0.46400
C1242       C  0.05894536  0.80008512  0.32602944     0.75200
O1243       O  0.09420049  0.78791447  0.29842198    -0.58300
O1244       O  0.06538581  0.78952028  0.33218156    -0.48300
O1245       O  0.07782210  0.77469209  0.30830515    -0.54700
C1246       C  0.10234355  0.77621003  0.33937450     0.85400
O1247       O  0.09982343  0.81044604  0.33362639    -0.56600
O1248       O  0.06711043  0.80770077  0.31787089    -0.59900
C1249       C  0.15761562  0.72546453  0.39643366    -0.11700
C1250       C  0.16350844  0.73687510  0.38768401     0.03700
C1251       C  0.15421543  0.74524772  0.37876025    -0.12300
C1252       C  0.13907491  0.74259914  0.37852396     0.18600
C1253       C  0.13312765  0.73156256  0.38751572    -0.09300
C1254       C  0.14237105  0.72311728  0.39639214    -0.02300
H1255       H  0.15880195  0.75390413  0.37200147     0.05100
C1256       C  0.12963403  0.75125497  0.36862980     0.20600
H1257       H  0.13763648  0.71449039  0.40307129     0.10300
C1258       C  0.12735857  0.74629488  0.35425984    -0.15700
C1259       C  0.11831739  0.75408013  0.34459835     0.03300
C1260       C  0.11131931  0.76709984  0.34936179    -0.11000
C1261       C  0.11348632  0.77189858  0.36386976    -0.01000
C1262       C  0.12268877  0.76417156  0.37342917    -0.06200
H1263       H  0.13260163  0.73626268  0.35057605     0.06300
H1264       H  0.10832023  0.78191985  0.36768563     0.09700
Br1265     Br  0.11245139  0.72759089  0.38782450    -0.05900
Br1266     Br  0.18393319  0.74216995  0.38797853    -0.02800
Br1267     Br  0.11554985  0.74593919  0.32533430     0.00000
Br1268     Br  0.12577994  0.77175686  0.39282807    -0.04300
C1269       C  0.11356084  0.83034452  0.32312983    -0.11700
C1270       C  0.11465189  0.84101312  0.31190783     0.03700
C1271       C  0.12547696  0.85189660  0.31273246    -0.12300
C1272       C  0.13525779  0.85244499  0.32459476     0.18600
C1273       C  0.13392976  0.84213187  0.33599198    -0.09300
C1274       C  0.12315284  0.83123559  0.33520234    -0.02300
H1275       H  0.12633040  0.85996701  0.30403027     0.05100
C1276       C  0.14692435  0.86370718  0.32471451     0.20600
H1277       H  0.12256615  0.82316183  0.34391349     0.10300
C1278       C  0.14588494  0.87565660  0.33435829    -0.15700
C1279       C  0.15670141  0.88659870  0.33459313     0.03300
C1280       C  0.16881520  0.88570114  0.32489098    -0.11000
C1281       C  0.16969445  0.87368331  0.31520751    -0.01000
C1282       C  0.15897265  0.86272452  0.31513397    -0.06200
H1283       H  0.13658057  0.87646730  0.34173155     0.06300
H1284       H  0.17894801  0.87259430  0.30781173     0.09700
Br1285     Br  0.14701776  0.84207622  0.35249447    -0.05900
Br1286     Br  0.10149847  0.84179237  0.29547169    -0.02800
Br1287     Br  0.15394915  0.90242701  0.34824630     0.00000
Br1288     Br  0.16156827  0.84627635  0.30220101    -0.04300
C1289       C  0.27383967  0.78242841  0.42144611    -0.11700
C1290       C  0.27713548  0.76927194  0.42908309     0.03700
C1291       C  0.26675469  0.75793093  0.42960214    -0.12300
C1292       C  0.25319565  0.75935417  0.42251919     0.18600
C1293       C  0.25003889  0.77220625  0.41462559    -0.09300
C1294       C  0.26026680  0.78359891  0.41418442    -0.02300
H1295       H  0.26921224  0.74798701  0.43564526     0.05100
C1296       C  0.24222298  0.74753237  0.42370669     0.20600
H1297       H  0.25749834  0.79347481  0.40816857     0.10300
C1298       C  0.23137475  0.74849217  0.43455296    -0.15700
C1299       C  0.22003579  0.73815877  0.43526723     0.03300
C1300       C  0.21935988  0.72669539  0.42480419    -0.11000
C1301       C  0.23063969  0.72548006  0.41432026    -0.01000
C1302       C  0.24201828  0.73577329  0.41373488    -0.06200
H1303       H  0.23165505  0.75743849  0.44240038     0.06300
H1304       H  0.23041065  0.71672730  0.40626575     0.09700
Br1305     Br  0.23185652  0.77465251  0.40428123    -0.05900
Br1306     Br  0.29528398  0.76595144  0.43929670    -0.02800
Br1307     Br  0.20626532  0.74013052  0.45111418     0.00000
Br1308     Br  0.25681033  0.73369227  0.39888633    -0.04300
C1309       C  0.28063383  0.85451095  0.40131492    -0.11700
C1310       C  0.26909249  0.86238927  0.40808030     0.03700
C1311       C  0.26022735  0.87166484  0.39962657    -0.12300
C1312       C  0.26279644  0.87339530  0.38456802     0.18600
C1313       C  0.27518630  0.86675974  0.37816030    -0.09300
C1314       C  0.28385673  0.85723400  0.38647463    -0.02300
H1315       H  0.25081116  0.87692733  0.40465011     0.05100
C1316       C  0.25158845  0.88068816  0.37542456     0.20600
H1317       H  0.29290006  0.85159557  0.38119425     0.10300
C1318       C  0.24950858  0.89588946  0.37641797    -0.15700
C1319       C  0.23921951  0.90302778  0.36748027     0.03300
C1320       C  0.23091783  0.89483797  0.35716799    -0.11000
C1321       C  0.23259181  0.87948786  0.35681658    -0.01000
C1322       C  0.24269250  0.87241152  0.36589546    -0.06200
H1323       H  0.25605717  0.90224295  0.38404808     0.06300
H1324       H  0.22611656  0.87289577  0.34931707     0.09700
Br1325     Br  0.28029717  0.86998627  0.35796190    -0.05900
Br1326     Br  0.26385890  0.85996134  0.42834819    -0.02800
Br1327     Br  0.23737866  0.92389185  0.36996468     0.00000
Br1328     Br  0.24379482  0.85134868  0.36509518    -0.04300
C1329       C  0.18485128  0.60833985  0.33700979    -0.11700
C1330       C  0.19377462  0.62108010  0.33710393     0.03700
C1331       C  0.19333932  0.63064241  0.34910088    -0.12300
C1332       C  0.18434279  0.62776670  0.36124250     0.18600
C1333       C  0.17552561  0.61506173  0.36124826    -0.09300
C1334       C  0.17578621  0.60552348  0.34918234    -0.02300
H1335       H  0.19997133  0.64052400  0.34889783     0.05100
C1336       C  0.18390373  0.63856933  0.37340958     0.20600
H1337       H  0.16893271  0.59580109  0.34937937     0.10300
C1338       C  0.17095360  0.64647967  0.37596186    -0.15700
C1339       C  0.17041883  0.65763863  0.38651841     0.03300
C1340       C  0.18314483  0.66121092  0.39467773    -0.11000
C1341       C  0.19606151  0.65312372  0.39220568    -0.01000
C1342       C  0.19648939  0.64183537  0.38177072    -0.06200
H1343       H  0.16128107  0.64419899  0.36941470     0.06300
H1344       H  0.20591322  0.65562687  0.39837751     0.09700
Br1345     Br  0.16328342  0.61007516  0.37764562    -0.05900
Br1346     Br  0.20633373  0.62667033  0.32107751    -0.02800
Br1347     Br  0.15223926  0.66817586  0.38831530     0.00000
Br1348     Br  0.21443057  0.63101787  0.37945450    -0.04300
C1349       C  0.09188373  0.71673783  0.22524268    -0.11700
C1350       C  0.08175455  0.72846529  0.22413711     0.03700
C1351       C  0.08150128  0.73939411  0.23495943    -0.12300
C1352       C  0.09108799  0.73881774  0.24697387     0.18600
C1353       C  0.10166089  0.72758298  0.24769278    -0.09300
C1354       C  0.10211100  0.71682204  0.23680353    -0.02300
H1355       H  0.07334452  0.74803981  0.23434670     0.05100
C1356       C  0.08892803  0.74898248  0.25942164     0.20600
H1357       H  0.11003394  0.70801707  0.23788159     0.10300
C1358       C  0.08386080  0.74324227  0.27276560    -0.15700
C1359       C  0.08240270  0.75215148  0.28515678     0.03300
C1360       C  0.08597045  0.76723362  0.28426011    -0.11000
C1361       C  0.09058984  0.77304683  0.27073090    -0.01000
C1362       C  0.09200419  0.76407878  0.25833855    -0.06200
H1363       H  0.08135829  0.73163368  0.27361931     0.06300
H1364       H  0.09330072  0.78460091  0.26982503     0.09700
Br1365     Br  0.11525427  0.72600356  0.26373231    -0.05900
Br1366     Br  0.06768220  0.73011930  0.20854461    -0.02800
Br1367     Br  0.07663056  0.74262708  0.30307062     0.00000
Br1368     Br  0.09877441  0.77280634  0.24041596    -0.04300
C1369       C  0.10834109  0.64738660  0.22912423    -0.11700
C1370       C  0.10838748  0.63205678  0.22683181     0.03700
C1371       C  0.11665838  0.62298312  0.23611803    -0.12300
C1372       C  0.12491898  0.62900771  0.24764208     0.18600
C1373       C  0.12453281  0.64423482  0.25013890    -0.09300
C1374       C  0.11618727  0.65324780  0.24101813    -0.02300
H1375       H  0.11687030  0.61123988  0.23419357     0.05100
C1376       C  0.13479000  0.61957582  0.25634124     0.20600
H1377       H  0.11625857  0.66499941  0.24294471     0.10300
C1378       C  0.14983809  0.61997434  0.25329484    -0.15700
C1379       C  0.15984533  0.61218566  0.26190434     0.03300
C1380       C  0.15478683  0.60383573  0.27401646    -0.11000
C1381       C  0.13959765  0.60315526  0.27676290    -0.01000
C1382       C  0.12962122  0.61092555  0.26802522    -0.06200
H1383       H  0.15383193  0.62653996  0.24420381     0.06300
H1384       H  0.13545349  0.59674282  0.28588540     0.09700
Br1385     Br  0.13558321  0.65326443  0.26564153    -0.05900
Br1386     Br  0.09702309  0.62292686  0.21161723    -0.02800
Br1387     Br  0.18008988  0.61324762  0.25600782     0.00000
Br1388     Br  0.10912691  0.60981953  0.27269993    -0.04300
C1389       C  0.27456488  0.58299843  0.21798203    -0.11700
C1390       C  0.27396744  0.57066807  0.22740259     0.03700
C1391       C  0.26423332  0.57064057  0.23926053    -0.12300
C1392       C  0.25516466  0.58274263  0.24203783     0.18600
C1393       C  0.25643488  0.59538919  0.23328982    -0.09300
C1394       C  0.26604581  0.59542254  0.22135421    -0.02300
H1395       H  0.26342912  0.56096657  0.24614294     0.05100
C1396       C  0.24353036  0.58142230  0.25318935     0.20600
H1397       H  0.26644269  0.60505441  0.21438262     0.10300
C1398       C  0.24485804  0.58877204  0.26662272    -0.15700
C1399       C  0.23368890  0.58796438  0.27716856     0.03300
C1400       C  0.22085520  0.57964174  0.27422906    -0.11000
C1401       C  0.21981118  0.57209877  0.26080016    -0.01000
C1402       C  0.23096747  0.57294089  0.25035100    -0.06200
H1403       H  0.25456583  0.59528828  0.26883055     0.06300
H1404       H  0.21012252  0.56569218  0.25823719     0.09700
Br1405     Br  0.24467765  0.61253830  0.23668020    -0.05900
Br1406     Br  0.28609844  0.55357871  0.22495863    -0.02800
Br1407     Br  0.23671436  0.59888804  0.29496052     0.00000
Br1408     Br  0.22827442  0.56283611  0.23204050    -0.04300
C1409       C  0.11482056  0.67924635  0.16397296    -0.11700
C1410       C  0.12988031  0.68283487  0.16503880     0.03700
C1411       C  0.13864222  0.68280752  0.15246657    -0.12300
C1412       C  0.13270328  0.67944464  0.13869313     0.18600
C1413       C  0.11772601  0.67586262  0.13755011    -0.09300
C1414       C  0.10892573  0.67565336  0.15017073    -0.02300
H1415       H  0.15021829  0.68539929  0.15342857     0.05100
C1416       C  0.14253042  0.67960782  0.12579596     0.20600
H1417       H  0.09739248  0.67294842  0.14915262     0.10300
C1418       C  0.14684918  0.66629778  0.11940716    -0.15700
C1419       C  0.15764861  0.66593571  0.10846854     0.03300
C1420       C  0.16445094  0.67916691  0.10386957    -0.11000
C1421       C  0.15945289  0.69252276  0.10979277    -0.01000
C1422       C  0.14864682  0.69281235  0.12066602    -0.06200
H1423       H  0.14209863  0.65609536  0.12327234     0.06300
H1424       H  0.16432763  0.70281678  0.10635615     0.09700
Br1425     Br  0.10878452  0.67184592  0.11892195    -0.05900
Br1426     Br  0.13945445  0.68713435  0.18334647    -0.02800
Br1427     Br  0.16253304  0.64695164  0.10064321     0.00000
Br1428     Br  0.14275812  0.71149587  0.12842618    -0.04300
C1429       C  0.27088631  0.60530660  0.14896757    -0.11700
C1430       C  0.27186752  0.60336616  0.13359849     0.03700
C1431       C  0.26347640  0.61219290  0.12423195    -0.12300
C1432       C  0.25400665  0.62289475  0.12990124     0.18600
C1433       C  0.25274888  0.62465084  0.14517652    -0.09300
C1434       C  0.26114032  0.61590091  0.15456906    -0.02300
H1435       H  0.26430858  0.61069040  0.11246079     0.05100
C1436       C  0.24546102  0.63215092  0.11975659     0.20600
H1437       H  0.26019211  0.61757030  0.16630435     0.10300
C1438       C  0.23141437  0.62761195  0.11543545    -0.15700
C1439       C  0.22265133  0.63658671  0.10655787     0.03300
C1440       C  0.22803058  0.65036164  0.10185512    -0.11000
C1441       C  0.24221426  0.65471813  0.10604046    -0.01000
C1442       C  0.25093118  0.64572550  0.11486822    -0.06200
H1443       H  0.22712364  0.61720766  0.11930171     0.06300
H1444       H  0.24651752  0.66523517  0.10251910     0.09700
Br1445     Br  0.23978961  0.63896197  0.15363033    -0.05900
Br1446     Br  0.28384725  0.58848916  0.12465997    -0.02800
Br1447     Br  0.20309855  0.62992593  0.10236741     0.00000
Br1448     Br  0.27009382  0.65257049  0.12026723    -0.04300
C1449       C  0.28872949  0.76709468  0.08576383    -0.11700
C1450       C  0.27451443  0.77303103  0.08775545     0.03700
C1451       C  0.26219529  0.76373858  0.08735173    -0.12300
C1452       C  0.26381340  0.74859350  0.08493105     0.18600
C1453       C  0.27798356  0.74270023  0.08322701    -0.09300
C1454       C  0.29021714  0.75189979  0.08363217    -0.02300
H1455       H  0.25130630  0.76838426  0.08850615     0.05100
C1456       C  0.25077491  0.73902493  0.08325501     0.20600
H1457       H  0.30100836  0.74710173  0.08220041     0.10300
C1458       C  0.24783013  0.73296977  0.06941399    -0.15700
C1459       C  0.23730219  0.72192997  0.06766134     0.03300
C1460       C  0.22905435  0.71709578  0.07990948    -0.11000
C1461       C  0.23138481  0.72390234  0.09358453    -0.01000
C1462       C  0.24231023  0.73457491  0.09538090    -0.06200
H1463       H  0.25433139  0.73633751  0.06003221     0.06300
H1464       H  0.22530339  0.72029170  0.10314861     0.09700
Br1465     Br  0.28121238  0.72206753  0.08029697    -0.05900
Br1466     Br  0.27109102  0.79373042  0.08980106    -0.02800
Br1467     Br  0.23531339  0.71371339  0.04832655     0.00000
Br1468     Br  0.24629850  0.74156486  0.11483344    -0.04300
C1469       C  0.33460229  0.60881218  0.18301690    -0.11700
C1470       C  0.34079604  0.61253420  0.19679309     0.03700
C1471       C  0.35271935  0.62221836  0.19744843    -0.12300
C1472       C  0.35835791  0.62873936  0.18469616     0.18600
C1473       C  0.35213404  0.62516652  0.17101783    -0.09300
C1474       C  0.34051561  0.61518768  0.17026064    -0.02300
H1475       H  0.35738983  0.62500523  0.20803077     0.05100
C1476       C  0.37025435  0.63976548  0.18584051     0.20600
H1477       H  0.33582865  0.61273856  0.15960912     0.10300
C1478       C  0.38386880  0.63696048  0.17921390    -0.15700
C1479       C  0.39484276  0.64773023  0.17877661     0.03300
C1480       C  0.39235476  0.66159559  0.18534372    -0.11000
C1481       C  0.37893306  0.66405358  0.19259866    -0.01000
C1482       C  0.36790248  0.65337620  0.19276855    -0.06200
H1483       H  0.38581097  0.62644047  0.17399803     0.06300
H1484       H  0.37672553  0.67458453  0.19768993     0.09700
Br1485     Br  0.35838735  0.63442144  0.15314132    -0.05900
Br1486     Br  0.33329327  0.60554690  0.21524535    -0.02800
Br1487     Br  0.41280229  0.64264147  0.16898224     0.00000
Br1488     Br  0.34939800  0.65837264  0.20156737    -0.04300
C1489       C  0.39949597  0.71963930  0.14866592    -0.11700
C1490       C  0.38665109  0.72797347  0.15142031     0.03700
C1491       C  0.38043153  0.73631984  0.14018990    -0.12300
C1492       C  0.38653201  0.73645569  0.12610251     0.18600
C1493       C  0.39909038  0.72802810  0.12315353    -0.09300
C1494       C  0.40551545  0.71973966  0.13440961    -0.02300
H1495       H  0.37059767  0.74265592  0.14240463     0.05100
C1496       C  0.37906457  0.74518367  0.11471891     0.20600
H1497       H  0.41528871  0.71341049  0.13199494     0.10300
C1498       C  0.38300903  0.75991334  0.11271400    -0.15700
C1499       C  0.37401261  0.76944577  0.10466517     0.03300
C1500       C  0.36065334  0.76419531  0.09866661    -0.11000
C1501       C  0.35748819  0.74909823  0.09970432    -0.01000
C1502       C  0.36653934  0.73964663  0.10767278    -0.06200
H1503       H  0.39272508  0.76418821  0.11809530     0.06300
H1504       H  0.34752080  0.74470105  0.09493209     0.09700
Br1505     Br  0.40754767  0.72738709  0.10389197    -0.05900
Br1506     Br  0.37649318  0.72827873  0.16992861    -0.02800
Br1507     Br  0.38028900  0.78953680  0.10329582     0.00000
Br1508     Br  0.36085544  0.71944582  0.10960989    -0.04300
C1509       C  0.29206068  0.90901106  0.23802212    -0.11700
C1510       C  0.28730678  0.92301429  0.24258300     0.03700
C1511       C  0.27580948  0.92424230  0.25269237    -0.12300
C1512       C  0.26897032  0.91167199  0.25841581     0.18600
C1513       C  0.27351063  0.89769080  0.25354355    -0.09300
C1514       C  0.28494733  0.89647037  0.24338763    -0.02300
H1515       H  0.27218083  0.93504691  0.25612630     0.05100
C1516       C  0.25727992  0.91331846  0.26958329     0.20600
H1517       H  0.28848315  0.88567052  0.23987230     0.10300
C1518       C  0.24289402  0.90904848  0.26619434    -0.15700
C1519       C  0.23174404  0.90965813  0.27676214     0.03300
C1520       C  0.23494265  0.91470765  0.29112827    -0.11000
C1521       C  0.24929224  0.91949298  0.29425885    -0.01000
C1522       C  0.26039170  0.91881945  0.28367713    -0.06200
H1523       H  0.24037801  0.90502407  0.25528309     0.06300
H1524       H  0.25203971  0.92347267  0.30512636     0.09700
Br1525     Br  0.26484687  0.87990400  0.26078623    -0.05900
Br1526     Br  0.29547894  0.94076187  0.23463236    -0.02800
Br1527     Br  0.21257765  0.90335867  0.27060300     0.00000
Br1528     Br  0.27981534  0.92478507  0.28927481    -0.04300
C1529       C  0.32621266  0.82669218  0.11313559    -0.11700
C1530       C  0.32403099  0.84154145  0.10896245     0.03700
C1531       C  0.32406178  0.85260361  0.11968120    -0.12300
C1532       C  0.32617186  0.84918850  0.13451751     0.18600
C1533       C  0.32829031  0.83450382  0.13869823    -0.09300
C1534       C  0.32835292  0.82345656  0.12808266    -0.02300
H1535       H  0.32228470  0.86391876  0.11645864     0.05100
C1536       C  0.32550407  0.86089479  0.14569111     0.20600
H1537       H  0.33003635  0.81222572  0.13162260     0.10300
C1538       C  0.31215378  0.86362893  0.15277795    -0.15700
C1539       C  0.31130694  0.87351407  0.16450730     0.03300
C1540       C  0.32414045  0.88083386  0.16941243    -0.11000
C1541       C  0.33739178  0.87842811  0.16182245    -0.01000
C1542       C  0.33813244  0.86859095  0.15005431    -0.06200
H1543       H  0.30238229  0.85774795  0.14936367     0.06300
H1544       H  0.34735835  0.88392690  0.16526821     0.09700
Br1545     Br  0.33096136  0.82900666  0.15885622    -0.05900
Br1546     Br  0.32065376  0.84767446  0.08907500    -0.02800
Br1547     Br  0.29227546  0.87605492  0.17324606     0.00000
Br1548     Br  0.35669375  0.86562341  0.14056729    -0.04300
C1549       C  0.42493022  0.77398018  0.27837179    -0.11700
C1550       C  0.41577070  0.76144580  0.27920896     0.03700
C1551       C  0.41635876  0.75079214  0.26809840    -0.12300
C1552       C  0.42607009  0.75227816  0.25623742     0.18600
C1553       C  0.43573121  0.76431707  0.25585135    -0.09300
C1554       C  0.43505284  0.77502944  0.26678223    -0.02300
H1555       H  0.40884307  0.74157023  0.26843333     0.05100
C1556       C  0.42495246  0.74218156  0.24356811     0.20600
H1557       H  0.44241304  0.78435775  0.26609165     0.10300
C1558       C  0.41947199  0.74770536  0.23029860    -0.15700
C1559       C  0.41848320  0.73882316  0.21783802     0.03300
C1560       C  0.42319177  0.72404819  0.21849468    -0.11000
C1561       C  0.42831102  0.71842243  0.23191877    -0.01000
C1562       C  0.42916266  0.72733834  0.24441898    -0.06200
H1563       H  0.41586165  0.75903022  0.22967237     0.06300
H1564       H  0.43183250  0.70708123  0.23266498     0.09700
Br1565     Br  0.45000395  0.76666080  0.24052603    -0.05900
Br1566     Br  0.40154822  0.75859519  0.29450971    -0.02800
Br1567     Br  0.40972224  0.74740397  0.20066735     0.00000
Br1568     Br  0.43645190  0.71886484  0.26224596    -0.04300
C1569       C  0.39532337  0.80989759  0.34345509    -0.11700
C1570       C  0.39080168  0.79711736  0.35107511     0.03700
C1571       C  0.38000562  0.79810805  0.36197887    -0.12300
C1572       C  0.37319690  0.81152893  0.36515859     0.18600
C1573       C  0.37739065  0.82418246  0.35739257    -0.09300
C1574       C  0.38854577  0.82336018  0.34686113    -0.02300
H1575       H  0.37662520  0.78827957  0.36777627     0.05100
C1576       C  0.36112922  0.81198993  0.37598306     0.20600
H1577       H  0.39147422  0.83320278  0.34085882     0.10300
C1578       C  0.36353441  0.81816105  0.38989794    -0.15700
C1579       C  0.35208324  0.81921934  0.40013264     0.03300
C1580       C  0.33795746  0.81402832  0.39641746    -0.11000
C1581       C  0.33573276  0.80758120  0.38258328    -0.01000
C1582       C  0.34712980  0.80659479  0.37239438    -0.06200
H1583       H  0.37434729  0.82220285  0.39276788     0.06300
H1584       H  0.32494262  0.80363250  0.37948906     0.09700
Br1585     Br  0.36729989  0.84250343  0.35998143    -0.05900
Br1586     Br  0.39862415  0.77792795  0.34714434    -0.02800
Br1587     Br  0.35656644  0.82719636  0.41912340     0.00000
Br1588     Br  0.34288298  0.79842942  0.35344443    -0.04300
C1589       C  0.40012298  0.83845563  0.28078707    -0.11700
C1590       C  0.40616871  0.84496577  0.26807602     0.03700
C1591       C  0.39738772  0.85389910  0.25919619    -0.12300
C1592       C  0.38268084  0.85658843  0.26283439     0.18600
C1593       C  0.37677996  0.85047491  0.27572781    -0.09300
C1594       C  0.38547493  0.84145231  0.28453663    -0.02300
H1595       H  0.40192867  0.85846218  0.24919001     0.05100
C1596       C  0.37337048  0.86492883  0.25256051     0.20600
H1597       H  0.38073037  0.83669961  0.29435754     0.10300
C1598       C  0.36228374  0.85748541  0.24493808    -0.15700
C1599       C  0.35302577  0.86492938  0.23526200     0.03300
C1600       C  0.35480474  0.88020864  0.23311738    -0.11000
C1601       C  0.36624671  0.88753408  0.24044302    -0.01000
C1602       C  0.37547533  0.88002717  0.25013160    -0.06200
H1603       H  0.36083684  0.84577681  0.24655060     0.06300
H1604       H  0.36779113  0.89923506  0.23895090     0.09700
Br1605     Br  0.35693469  0.85419328  0.28177683    -0.05900
Br1606     Br  0.42585484  0.84121398  0.26156124    -0.02800
Br1607     Br  0.33866373  0.85333802  0.22502456     0.00000
Br1608     Br  0.39032136  0.89094830  0.26032706    -0.04300
C1609       C  0.14903789  0.27066242  0.40490098    -0.11700
C1610       C  0.13791637  0.27658734  0.39580114     0.03700
C1611       C  0.12945663  0.26725269  0.38702552    -0.12300
C1612       C  0.13162795  0.25203939  0.38725214     0.18600
C1613       C  0.14205853  0.24600832  0.39689070    -0.09300
C1614       C  0.15061634  0.25529654  0.40563015    -0.02300
H1615       H  0.12133465  0.27191865  0.37968891     0.05100
C1616       C  0.12394049  0.24290651  0.37630070     0.20600
H1617       H  0.15895563  0.25045643  0.41258950     0.10300
C1618       C  0.12848981  0.24369398  0.36163564    -0.15700
C1619       C  0.12152790  0.23542805  0.35075231     0.03300
C1620       C  0.10980595  0.22596958  0.35456283    -0.11000
C1621       C  0.10507455  0.22547496  0.36925311    -0.01000
C1622       C  0.11199388  0.23389767  0.38007711    -0.06200
H1623       H  0.13748254  0.25089428  0.35863034     0.06300
H1624       H  0.09597750  0.21845038  0.37237639     0.09700
Br1625     Br  0.14568868  0.22526409  0.39775978    -0.05900
Br1626     Br  0.13363064  0.29720085  0.39450522    -0.02800
Br1627     Br  0.12814073  0.23834452  0.33091724     0.00000
Br1628     Br  0.10451376  0.23312761  0.39973941    -0.04300
C1629       C  0.27302346  0.21513349  0.42228561    -0.11700
C1630       C  0.27732509  0.22980941  0.41936221     0.03700
C1631       C  0.26700972  0.24116903  0.42044807    -0.12300
C1632       C  0.25250578  0.23827734  0.42463293     0.18600
C1633       C  0.24829132  0.22380688  0.42793369    -0.09300
C1634       C  0.25848858  0.21242584  0.42676049    -0.02300
H1635       H  0.27028249  0.25232668  0.41791482     0.05100
C1636       C  0.24163128  0.25028057  0.42463337     0.20600
H1637       H  0.25489384  0.20133445  0.42913641     0.10300
C1638       C  0.23562830  0.25480367  0.41124488    -0.15700
C1639       C  0.22426342  0.26511298  0.41077057     0.03300
C1640       C  0.21862913  0.27106112  0.42399952    -0.11000
C1641       C  0.22523152  0.26696578  0.43737133    -0.01000
C1642       C  0.23665335  0.25669334  0.43774788    -0.06200
H1643       H  0.23958804  0.24999594  0.40110091     0.06300
H1644       H  0.22127842  0.27147020  0.44763408     0.09700
Br1645     Br  0.22855462  0.21897841  0.43352667    -0.05900
Br1646     Br  0.29691202  0.23535704  0.41385085    -0.02800
Br1647     Br  0.21707363  0.27025392  0.39161896     0.00000
Br1648     Br  0.24503457  0.25151604  0.45636444    -0.04300
C1649       C  0.19148294  0.95759790  0.32629171    -0.11700
C1650       C  0.19129329  0.96649250  0.31352915     0.03700
C1651       C  0.19010803  0.98174407  0.31487826    -0.12300
C1652       C  0.18904284  0.98841472  0.32868582     0.18600
C1653       C  0.18818557  0.97959189  0.34131551    -0.09300
C1654       C  0.18948477  0.96434505  0.34005507    -0.02300
H1655       H  0.19064041  0.98851071  0.30510680     0.05100
C1656       C  0.19006798  0.00456682  0.32960390     0.20600
H1657       H  0.18932088  0.95777644  0.34997118     0.10300
C1658       C  0.17894594  0.01325099  0.32346143    -0.15700
C1659       C  0.18048828  0.02852665  0.32249930     0.03300
C1660       C  0.19328394  0.03534380  0.32808126    -0.11000
C1661       C  0.20412441  0.02658970  0.33467722    -0.01000
C1662       C  0.20279577  0.01135263  0.33512916    -0.06200
H1663       H  0.16923315  0.00805521  0.31896510     0.06300
H1664       H  0.21417438  0.03151981  0.33871707     0.09700
Br1665     Br  0.18553383  0.98792112  0.36049557    -0.05900
Br1666     Br  0.19353663  0.95897584  0.29394764    -0.02800
Br1667     Br  0.16490323  0.03917457  0.31310899     0.00000
Br1668     Br  0.21944922  0.00028167  0.34179908    -0.04300
C1669       C  0.11598109  0.16302673  0.32326822    -0.11700
C1670       C  0.11324310  0.15012257  0.33143973     0.03700
C1671       C  0.12329217  0.13852291  0.33094794    -0.12300
C1672       C  0.13612354  0.13958162  0.32253895     0.18600
C1673       C  0.13886116  0.15236583  0.31435047    -0.09300
C1674       C  0.12880175  0.16391303  0.31471401    -0.02300
H1675       H  0.12114032  0.12863603  0.33721011     0.05100
C1676       C  0.14675581  0.12741837  0.32269058     0.20600
H1677       H  0.13117730  0.17375716  0.30846919     0.10300
C1678       C  0.14829991  0.11856313  0.31020349    -0.15700
C1679       C  0.15895601  0.10752820  0.30966842     0.03300
C1680       C  0.16837036  0.10536696  0.32180509    -0.11000
C1681       C  0.16637958  0.11394603  0.33448368    -0.01000
C1682       C  0.15566867  0.12487196  0.33500795    -0.06200
H1683       H  0.14125666  0.12035646  0.30078585     0.06300
H1684       H  0.17346378  0.11246743  0.34391861     0.09700
Br1685     Br  0.15646119  0.15475863  0.30298662    -0.05900
Br1686     Br  0.09587699  0.14731578  0.34304223    -0.02800
Br1687     Br  0.15970645  0.09566267  0.29224149     0.00000
Br1688     Br  0.15406405  0.13648524  0.35252526    -0.04300
C1689       C  0.23168847  0.10331323  0.34794044    -0.11700
C1690       C  0.24407935  0.11080481  0.34234703     0.03700
C1691       C  0.25234271  0.11983662  0.35158026    -0.12300
C1692       C  0.24862834  0.12144857  0.36639418     0.18600
C1693       C  0.23650533  0.11379056  0.37211157    -0.09300
C1694       C  0.22812991  0.10479506  0.36288944    -0.02300
H1695       H  0.26179840  0.12559652  0.34720291     0.05100
C1696       C  0.25749439  0.13137019  0.37558696     0.20600
H1697       H  0.21867890  0.09913062  0.36737472     0.10300
C1698       C  0.25426573  0.14639481  0.37560648    -0.15700
C1699       C  0.26276125  0.15626444  0.38374346     0.03300
C1700       C  0.27485251  0.15106667  0.39199874    -0.11000
C1701       C  0.27794386  0.13593835  0.39200817    -0.01000
C1702       C  0.26940986  0.12612330  0.38384399    -0.06200
H1703       H  0.24504519  0.15044717  0.36927442     0.06300
H1704       H  0.28714568  0.13172713  0.39825847     0.09700
Br1705     Br  0.23101651  0.11542025  0.39237947    -0.05900
Br1706     Br  0.25084672  0.10866195  0.32247004    -0.02800
Br1707     Br  0.25668505  0.17647449  0.38360522     0.00000
Br1708     Br  0.27447369  0.10567929  0.38408505    -0.04300
C1709       C  0.38951389  0.18060009  0.33255805    -0.11700
C1710       C  0.37494414  0.18584444  0.33135880     0.03700
C1711       C  0.36589768  0.18620300  0.34376222    -0.12300
C1712       C  0.37109490  0.18182782  0.35758301     0.18600
C1713       C  0.38570410  0.17692541  0.35887582    -0.09300
C1714       C  0.39469590  0.17621776  0.34642386    -0.02300
H1715       H  0.35461028  0.18978231  0.34258039     0.05100
C1716       C  0.36077513  0.18176611  0.37021011     0.20600
H1717       H  0.40587414  0.17234567  0.34764247     0.10300
C1718       C  0.35742565  0.16842641  0.37717077    -0.15700
C1719       C  0.34650108  0.16760147  0.38797282     0.03300
C1720       C  0.33836012  0.18029809  0.39171108    -0.11000
C1721       C  0.34216967  0.19373710  0.38512427    -0.01000
C1722       C  0.35329201  0.19457711  0.37458245    -0.06200
H1723       H  0.36304994  0.15847903  0.37385712     0.06300
H1724       H  0.33630303  0.20367870  0.38801258     0.09700
Br1725     Br  0.39408013  0.17160411  0.37745216    -0.05900
Br1726     Br  0.36631089  0.19214268  0.31317573    -0.02800
Br1727     Br  0.34290678  0.14862599  0.39643852     0.00000
Br1728     Br  0.35787110  0.21353116  0.36656329    -0.04300
C1729       C  0.28801810  0.07341538  0.23082293    -0.11700
C1730       C  0.27447015  0.06669101  0.22728658     0.03700
C1731       C  0.26282378  0.06725862  0.23732322    -0.12300
C1732       C  0.26442555  0.07443168  0.25083793     0.18600
C1733       C  0.27786892  0.08110998  0.25437627    -0.09300
C1734       C  0.28947241  0.08061076  0.24440357    -0.02300
H1735       H  0.25252599  0.06191349  0.23467215     0.05100
C1736       C  0.25229305  0.07426232  0.26153376     0.20600
H1737       H  0.29975097  0.08580263  0.24738002     0.10300
C1738       C  0.25005127  0.06165308  0.27003227    -0.15700
C1739       C  0.23983488  0.06161932  0.28149423     0.03300
C1740       C  0.23158068  0.07442146  0.28451476    -0.11000
C1741       C  0.23336723  0.08679179  0.27544847    -0.01000
C1742       C  0.24368744  0.08681281  0.26408774    -0.06200
H1743       H  0.25659365  0.05192416  0.26799684     0.06300
H1744       H  0.22710871  0.09669260  0.27752879     0.09700
Br1745     Br  0.28106070  0.09054188  0.27296225    -0.05900
Br1746     Br  0.27132403  0.05581814  0.20949758    -0.02800
Br1747     Br  0.23766528  0.04368271  0.29237581     0.00000
Br1748     Br  0.24607299  0.10433724  0.25263268    -0.04300
C1749       C  0.32958325  0.02723605  0.19821664    -0.11700
C1750       C  0.32276978  0.01951377  0.18655149     0.03700
C1751       C  0.32290522  0.00412439  0.18641706    -0.12300
C1752       C  0.32968217  0.99615574  0.19769877     0.18600
C1753       C  0.33679476  0.00378711  0.20909038    -0.09300
C1754       C  0.33669955  0.01913606  0.20926964    -0.02300
H1755       H  0.31749458  0.99830914  0.17755905     0.05100
C1756       C  0.32907312  0.97990756  0.19757593     0.20600
H1757       H  0.34199713  0.02475100  0.21831868     0.10300
C1758       C  0.34208736  0.97187477  0.19576436    -0.15700
C1759       C  0.34208732  0.95652508  0.19658677     0.03300
C1760       C  0.32878592  0.94893010  0.19899249    -0.11000
C1761       C  0.31569793  0.95699682  0.20026470    -0.01000
C1762       C  0.31576059  0.97233474  0.19970186    -0.06200
H1763       H  0.35234948  0.97761838  0.19394847     0.06300
H1764       H  0.30540599  0.95138408  0.20224823     0.09700
Br1765     Br  0.34609631  0.99374409  0.22511279    -0.05900
Br1766     Br  0.31250239  0.02900389  0.17077202    -0.02800
Br1767     Br  0.36054361  0.94667658  0.19403335     0.00000
Br1768     Br  0.29751316  0.98240867  0.20281182    -0.04300
C1769       C  0.40001828  0.14178024  0.27252247    -0.11700
C1770       C  0.40491872  0.13792314  0.25829302     0.03700
C1771       C  0.39673578  0.12805885  0.24982776    -0.12300
C1772       C  0.38379437  0.12183593  0.25531707     0.18600
C1773       C  0.37935830  0.12497694  0.26975719    -0.09300
C1774       C  0.38745242  0.13486762  0.27822534    -0.02300
H1775       H  0.40028849  0.12547748  0.23876678     0.05100
C1776       C  0.37448849  0.11298453  0.24547923     0.20600
H1777       H  0.38352911  0.13759396  0.28912484     0.10300
C1778       C  0.37478233  0.09764048  0.24641478    -0.15700
C1779       C  0.36564223  0.08904849  0.23752355     0.03300
C1780       C  0.35592445  0.09589262  0.22754437    -0.11000
C1781       C  0.35578695  0.11130102  0.22660979    -0.01000
C1782       C  0.36504249  0.11982864  0.23538532    -0.06200
H1783       H  0.38200154  0.09235176  0.25425064     0.06300
H1784       H  0.34840586  0.11675516  0.21905124     0.09700
Br1785     Br  0.36188274  0.11666021  0.27807105    -0.05900
Br1786     Br  0.42266284  0.14546492  0.24974605    -0.02800
Br1787     Br  0.36627512  0.06817302  0.24035420     0.00000
Br1788     Br  0.36420830  0.14082135  0.23354051    -0.04300
C1789       C  0.41613955  0.26946764  0.21593076    -0.11700
C1790       C  0.42638902  0.25776650  0.21652236     0.03700
C1791       C  0.42610959  0.24795130  0.22831653    -0.12300
C1792       C  0.41569350  0.24933679  0.23951796     0.18600
C1793       C  0.40561876  0.26100677  0.23912765    -0.09300
C1794       C  0.40598700  0.27102778  0.22748542    -0.02300
H1795       H  0.43379547  0.23886809  0.22853451     0.05100
C1796       C  0.41473159  0.23764005  0.25067306     0.20600
H1797       H  0.39797576  0.27982039  0.22727095     0.10300
C1798       C  0.42274455  0.23878107  0.26375268    -0.15700
C1799       C  0.42295303  0.22718967  0.27388811     0.03300
C1800       C  0.41502550  0.21414559  0.27088364    -0.11000
C1801       C  0.40669898  0.21332723  0.25791187    -0.01000
C1802       C  0.40658754  0.22486130  0.24783800    -0.06200
H1803       H  0.42903817  0.24863694  0.26596411     0.06300
H1804       H  0.40053531  0.20348112  0.25533054     0.09700
Br1805     Br  0.39071472  0.26317486  0.25384147    -0.05900
Br1806     Br  0.44090317  0.25407402  0.20164730    -0.02800
Br1807     Br  0.43416568  0.23006103  0.29151775     0.00000
Br1808     Br  0.39558759  0.22249606  0.23002875    -0.04300
C1809       C  0.32413592  0.09855800  0.16709912    -0.11700
C1810       C  0.31120990  0.10197571  0.15922469     0.03700
C1811       C  0.31132798  0.11337280  0.14891633    -0.12300
C1812       C  0.32415521  0.12140288  0.14616781     0.18600
C1813       C  0.33720674  0.11756971  0.15346279    -0.09300
C1814       C  0.33713171  0.10619493  0.16377839    -0.02300
H1815       H  0.30131119  0.11611563  0.14312398     0.05100
C1816       C  0.32349240  0.13405339  0.13603927     0.20600
H1817       H  0.34716856  0.10374409  0.16967404     0.10300
C1818       C  0.31877773  0.14769044  0.14138635    -0.15700
C1819       C  0.31745634  0.15982082  0.13202644     0.03300
C1820       C  0.32086984  0.15835689  0.11693542    -0.11000
C1821       C  0.32579616  0.14468324  0.11171073    -0.01000
C1822       C  0.32701691  0.13257892  0.12109768    -0.06200
H1823       H  0.31612995  0.14889366  0.15292775     0.06300
H1824       H  0.32853415  0.14333303  0.10022002     0.09700
Br1825     Br  0.35522690  0.12793119  0.15012189    -0.05900
Br1826     Br  0.29316509  0.09135449  0.16169823    -0.02800
Br1827     Br  0.31170316  0.17812694  0.14079842     0.00000
Br1828     Br  0.33326527  0.11415091  0.11305554    -0.04300
C1829       C  0.39083507  0.27049604  0.15133221    -0.11700
C1830       C  0.37711949  0.26402984  0.15478062     0.03700
C1831       C  0.37062590  0.25423032  0.14493202    -0.12300
C1832       C  0.37750451  0.25057232  0.13168226     0.18600
C1833       C  0.39106241  0.25697883  0.12813046    -0.09300
C1834       C  0.39759179  0.26688446  0.13789247    -0.02300
H1835       H  0.36010592  0.24935437  0.14764182     0.05100
C1836       C  0.37014098  0.24006982  0.12181209     0.20600
H1837       H  0.40814096  0.27158143  0.13503530     0.10300
C1838       C  0.36283452  0.24529613  0.10932869    -0.15700
C1839       C  0.35374321  0.23603524  0.10107674     0.03300
C1840       C  0.35190577  0.22121473  0.10539430    -0.11000
C1841       C  0.35997385  0.21589911  0.11742371    -0.01000
C1842       C  0.36898352  0.22517166  0.12561621    -0.06200
H1843       H  0.36368146  0.25680326  0.10639913     0.06300
H1844       H  0.35892091  0.20454077  0.12081162     0.09700
Br1845     Br  0.40126101  0.25203226  0.11038149    -0.05900
Br1846     Br  0.36638170  0.26797568  0.17251404    -0.02800
Br1847     Br  0.34335206  0.24478352  0.08495724     0.00000
Br1848     Br  0.37913681  0.21711380  0.14221490    -0.04300
C1849       C  0.30135457  0.46087350  0.17417671    -0.11700
C1850       C  0.30322220  0.47033208  0.18640404     0.03700
C1851       C  0.30372113  0.48552828  0.18431556    -0.12300
C1852       C  0.30225611  0.49165609  0.17030949     0.18600
C1853       C  0.30058988  0.48235865  0.15809907    -0.09300
C1854       C  0.30020560  0.46712011  0.16008634    -0.02300
H1855       H  0.30500612  0.49267106  0.19374438     0.05100
C1856       C  0.30220883  0.50781286  0.16891719     0.20600
H1857       H  0.29872561  0.46015283  0.15055495     0.10300
C1858       C  0.31531467  0.51559078  0.17105845    -0.15700
C1859       C  0.31542618  0.53097131  0.17143000     0.03300
C1860       C  0.30211316  0.53882633  0.16982714    -0.11000
C1861       C  0.28910852  0.53091824  0.16718875    -0.01000
C1862       C  0.28905599  0.51559075  0.16679046    -0.06200
H1863       H  0.32548551  0.50963028  0.17268741     0.06300
H1864       H  0.27874999  0.53664256  0.16598274     0.09700
Br1865     Br  0.29872356  0.48999899  0.13856430    -0.05900
Br1866     Br  0.30497152  0.46362205  0.20634153    -0.02800
Br1867     Br  0.33413274  0.54033682  0.17407967     0.00000
Br1868     Br  0.27057202  0.50578551  0.16428983    -0.04300
C1869       C  0.33121483  0.38926579  0.18157670    -0.11700
C1870       C  0.33171658  0.37677413  0.19081860     0.03700
C1871       C  0.34381297  0.36734788  0.19029419    -0.12300
C1872       C  0.35574076  0.37014676  0.18097159     0.18600
C1873       C  0.35544085  0.38274947  0.17199700    -0.09300
C1874       C  0.34327590  0.39215102  0.17236894    -0.02300
H1875       H  0.34384537  0.35761718  0.19714388     0.05100
C1876       C  0.36784084  0.35923968  0.18026034     0.20600
H1877       H  0.34319198  0.40167209  0.16524348     0.10300
C1878       C  0.37055345  0.35187973  0.16700675    -0.15700
C1879       C  0.38063870  0.34030723  0.16623361     0.03300
C1880       C  0.38802445  0.33560529  0.17907174    -0.11000
C1881       C  0.38561171  0.34331776  0.19223542    -0.01000
C1882       C  0.37574805  0.35508058  0.19288662    -0.06200
H1883       H  0.36443210  0.35486622  0.15725757     0.06300
H1884       H  0.39132168  0.34010436  0.20215857     0.09700
Br1885     Br  0.37143236  0.38778228  0.15923297    -0.05900
Br1886     Br  0.31657036  0.37183013  0.20466788    -0.02800
Br1887     Br  0.38299784  0.33108145  0.14740992     0.00000
Br1888     Br  0.37357443  0.36519632  0.21126183    -0.04300
C1889       C  0.22915461  0.27721560  0.08428423    -0.11700
C1890       C  0.22583646  0.26469485  0.09285583     0.03700
C1891       C  0.23582960  0.25303116  0.09358541    -0.12300
C1892       C  0.24918558  0.25365703  0.08600730     0.18600
C1893       C  0.25248227  0.26601433  0.07737166    -0.09300
C1894       C  0.24251827  0.27766714  0.07657249    -0.02300
H1895       H  0.23337188  0.24361395  0.10043067     0.05100
C1896       C  0.26001477  0.24176310  0.08781231     0.20600
H1897       H  0.24530416  0.28718823  0.07001041     0.10300
C1898       C  0.26027275  0.23013775  0.07774214    -0.15700
C1899       C  0.27149957  0.21963092  0.07813625     0.03300
C1900       C  0.28263171  0.22064443  0.08891247    -0.11000
C1901       C  0.28203398  0.23212135  0.09921949    -0.01000
C1902       C  0.27086470  0.24261504  0.09873668    -0.06200
H1903       H  0.25203806  0.22958921  0.06917671     0.06300
H1904       H  0.29047659  0.23312234  0.10754153     0.09700
Br1905     Br  0.27072084  0.26753820  0.06690888    -0.05900
Br1906     Br  0.20860035  0.26336743  0.10492376    -0.02800
Br1907     Br  0.27175985  0.20524194  0.06272857     0.00000
Br1908     Br  0.27121058  0.25834392  0.11276212    -0.04300
C1909       C  0.22513018  0.34749834  0.10550341    -0.11700
C1910       C  0.22852345  0.36121917  0.09901704     0.03700
C1911       C  0.23668321  0.37158669  0.10693275    -0.12300
C1912       C  0.24145682  0.36856795  0.12123162     0.18600
C1913       C  0.23790962  0.35505642  0.12776224    -0.09300
C1914       C  0.22987543  0.34468054  0.11990766    -0.02300
H1915       H  0.23944599  0.38200139  0.10187921     0.05100
C1916       C  0.25046300  0.37937774  0.12919152     0.20600
H1917       H  0.22735819  0.33430399  0.12515309     0.10300
C1918       C  0.24398835  0.38781387  0.14029323    -0.15700
C1919       C  0.25254968  0.39677369  0.14935307     0.03300
C1920       C  0.26795132  0.39723583  0.14737885    -0.11000
C1921       C  0.27428657  0.38917163  0.13585596    -0.01000
C1922       C  0.26565802  0.38037100  0.12672834    -0.06200
H1923       H  0.23227401  0.38699598  0.14224948     0.06300
H1924       H  0.28605862  0.38943038  0.13415343     0.09700
Br1925     Br  0.24413672  0.35009937  0.14727001    -0.05900
Br1926     Br  0.22293438  0.36644529  0.07937425    -0.02800
Br1927     Br  0.24256856  0.40692273  0.16493495     0.00000
Br1928     Br  0.27515947  0.36925109  0.11156777    -0.04300
C1929       C  0.21910103  0.41452717  0.27657903    -0.11700
C1930       C  0.22250069  0.42707078  0.26810112     0.03700
C1931       C  0.23289227  0.42609621  0.25682948    -0.12300
C1932       C  0.24021273  0.41286946  0.25399770     0.18600
C1933       C  0.23750551  0.40060956  0.26297400    -0.09300
C1934       C  0.22698006  0.40148491  0.27414006    -0.02300
H1935       H  0.23523210  0.43568478  0.25017693     0.05100
C1936       C  0.25030858  0.41203681  0.24135483     0.20600
H1937       H  0.22469484  0.39182984  0.28068646     0.10300
C1938       C  0.26496070  0.41637202  0.24303159    -0.15700
C1939       C  0.27455333  0.41659574  0.23100703     0.03300
C1940       C  0.26940017  0.41246823  0.21692844    -0.11000
C1941       C  0.25472423  0.40789080  0.21543471    -0.01000
C1942       C  0.24522919  0.40764593  0.22747013    -0.06200
H1943       H  0.26887909  0.41982747  0.25372156     0.06300
H1944       H  0.25050504  0.40462754  0.20479242     0.09700
Br1945     Br  0.24783000  0.38246997  0.26022026    -0.05900
Br1946     Br  0.21403099  0.44601328  0.27190712    -0.02800
Br1947     Br  0.29420516  0.42332174  0.23464987     0.00000
Br1948     Br  0.22529453  0.40158064  0.22437903    -0.04300
C1949       C  0.18214911  0.45902505  0.31696426    -0.11700
C1950       C  0.19462646  0.46830501  0.31736120     0.03700
C1951       C  0.19281669  0.48357193  0.31789473    -0.12300
C1952       C  0.17880114  0.48992727  0.31806207     0.18600
C1953       C  0.16639156  0.48073052  0.31832785    -0.09300
C1954       C  0.16813397  0.46546839  0.31777996    -0.02300
H1955       H  0.20242665  0.49057905  0.31753287     0.05100
C1956       C  0.17750202  0.50604958  0.31620759     0.20600
H1957       H  0.15840994  0.45860969  0.31764743     0.10300
C1958       C  0.17240433  0.51153293  0.30277136    -0.15700
C1959       C  0.17273113  0.52658527  0.29969220     0.03300
C1960       C  0.17834632  0.53655113  0.31023358    -0.11000
C1961       C  0.18307377  0.53102454  0.32385637    -0.01000
C1962       C  0.18265118  0.51594649  0.32689649    -0.06200
H1963       H  0.16861336  0.50396659  0.29440024     0.06300
H1964       H  0.18725707  0.53844444  0.33215943     0.09700
Br1965     Br  0.14684673  0.48849781  0.31929225    -0.05900
Br1966     Br  0.21443114  0.46121626  0.31594396    -0.02800
Br1967     Br  0.16630577  0.53239490  0.28045652     0.00000
Br1968     Br  0.18915863  0.50933875  0.34578988    -0.04300
C1969       C  0.18516342  0.33393498  0.39983071    -0.11700
C1970       C  0.19550653  0.33482664  0.38825248     0.03700
C1971       C  0.19538560  0.34693608  0.37877380    -0.12300
C1972       C  0.18512771  0.35828954  0.38047646     0.18600
C1973       C  0.17502271  0.35758766  0.39214685    -0.09300
C1974       C  0.17512251  0.34552965  0.40169014    -0.02300
H1975       H  0.20306914  0.34728192  0.36969041     0.05100
C1976       C  0.18445177  0.37004041  0.36920674     0.20600
H1977       H  0.16714683  0.34514685  0.41050250     0.10300
C1978       C  0.17260976  0.37025200  0.35938604    -0.15700
C1979       C  0.17223481  0.38015079  0.34763481     0.03300
C1980       C  0.18399298  0.39005771  0.34543122    -0.11000
C1981       C  0.19575027  0.38997725  0.35542420    -0.01000
C1982       C  0.19596201  0.38019615  0.36732147    -0.06200
H1983       H  0.16380055  0.36235103  0.36062223     0.06300
H1984       H  0.20481514  0.39754867  0.35397601     0.09700
Br1985     Br  0.16089949  0.37284059  0.39549545    -0.05900
Br1986     Br  0.20941844  0.31955897  0.38391431    -0.02800
Br1987     Br  0.15595111  0.37859377  0.33431652     0.00000
Br1988     Br  0.21199218  0.38124615  0.38092621    -0.04300
C1989       C  0.08664190  0.28656776  0.23706667    -0.11700
C1990       C  0.08659326  0.28929336  0.25235041     0.03700
C1991       C  0.08655278  0.27752072  0.26215412    -0.12300
C1992       C  0.08657688  0.26303121  0.25704746     0.18600
C1993       C  0.08666741  0.26024316  0.24187313    -0.09300
C1994       C  0.08683941  0.27198560  0.23201194    -0.02300
H1995       H  0.08659059  0.27966332  0.27385997     0.05100
C1996       C  0.08642144  0.25104682  0.26784447     0.20600
H1997       H  0.08681297  0.26969432  0.22034120     0.10300
C1998       C  0.07349516  0.24825259  0.27570471    -0.15700
C1999       C  0.07318551  0.23758861  0.28672875     0.03300
C2000       C  0.08601068  0.22950390  0.28990376    -0.11000
C2001       C  0.09884689  0.23216707  0.28180458    -0.01000
C2002       C  0.09919356  0.24299056  0.27098404    -0.06200
H2003       H  0.06365002  0.25449387  0.27331824     0.06300
H2004       H  0.10882720  0.22617056  0.28427210     0.09700
Br2005     Br  0.08600850  0.24063269  0.23418030    -0.05900
Br2006     Br  0.08727723  0.30866337  0.26070615    -0.02800
Br2007     Br  0.05486274  0.23426306  0.29661569     0.00000
Br2008     Br  0.11754958  0.24703842  0.26146436    -0.04300
C2009       C  0.11143643  0.31972743  0.16851613    -0.11700
C2010       C  0.11959759  0.33213367  0.16395384     0.03700
C2011       C  0.12927203  0.33102451  0.15204330    -0.12300
C2012       C  0.13114207  0.31771400  0.14454495     0.18600
C2013       C  0.12278680  0.30542793  0.14882092    -0.09300
C2014       C  0.11306076  0.30649860  0.16069849    -0.02300
H2015       H  0.13585932  0.34045644  0.14899476     0.05100
C2016       C  0.14302568  0.31649109  0.13347920     0.20600
H2017       H  0.10689078  0.29686442  0.16396626     0.10300
C2018       C  0.15597304  0.30917774  0.13737401    -0.15700
C2019       C  0.16789116  0.30840148  0.12771015     0.03300
C2020       C  0.16691666  0.31488643  0.11360427    -0.11000
C2021       C  0.15392339  0.32233663  0.10979352    -0.01000
C2022       C  0.14207941  0.32322082  0.11960636    -0.06200
H2023       H  0.15692261  0.30430206  0.14818679     0.06300
H2024       H  0.15294072  0.32749936  0.09912928     0.09700
Br2025     Br  0.12443620  0.28694616  0.13883328    -0.05900
Br2026     Br  0.11929950  0.35048522  0.17433527    -0.02800
Br2027     Br  0.18535266  0.29912609  0.13507932     0.00000
Br2028     Br  0.12478173  0.33359072  0.11359060    -0.04300
C2029       C  0.11027830  0.34857290  0.23366544    -0.11700
C2030       C  0.12551505  0.35067046  0.23178480     0.03700
C2031       C  0.13334117  0.35934204  0.24173357    -0.12300
C2032       C  0.12638997  0.36580552  0.25386192     0.18600
C2033       C  0.11114006  0.36390113  0.25568491    -0.09300
C2034       C  0.10319755  0.35544640  0.24554506    -0.02300
H2035       H  0.14502118  0.36092924  0.24009528     0.05100
C2036       C  0.13542742  0.37432123  0.26442280     0.20600
H2037       H  0.09152827  0.35382615  0.24724095     0.10300
C2038       C  0.13319452  0.38948179  0.26598189    -0.15700
C2039       C  0.14236921  0.39800020  0.27496049     0.03300
C2040       C  0.15439833  0.39137424  0.28227919    -0.11000
C2041       C  0.15628132  0.37608983  0.28097185    -0.01000
C2042       C  0.14688168  0.36759047  0.27230504    -0.06200
H2043       H  0.12435719  0.39475527  0.26002338     0.06300
H2044       H  0.16514876  0.37064090  0.28672163     0.09700
Br2045     Br  0.10088925  0.37183505  0.27229770    -0.05900
Br2046     Br  0.13627179  0.34237455  0.21564721    -0.02800
Br2047     Br  0.13765808  0.41849527  0.27656540     0.00000
Br2048     Br  0.14987240  0.34671823  0.27191473    -0.04300
C2049       C  0.54344765  0.68802280  0.17641429    -0.11700
C2050       C  0.53573524  0.68903409  0.16300207     0.03700
C2051       C  0.52045077  0.68760382  0.16285151    -0.12300
C2052       C  0.51256258  0.68555234  0.17590731     0.18600
C2053       C  0.52025798  0.68386478  0.18920063    -0.09300
C2054       C  0.53558106  0.68495245  0.18934180    -0.02300
H2055       H  0.51459565  0.68876634  0.15255458     0.05100
C2056       C  0.49636516  0.68673769  0.17563605     0.20600
H2057       H  0.54127551  0.68419251  0.19974266     0.10300
C2058       C  0.48763337  0.67441918  0.17868575    -0.15700
C2059       C  0.47228551  0.67554641  0.17914430     0.03300
C2060       C  0.46546557  0.68927412  0.17666208    -0.11000
C2061       C  0.47427842  0.70143125  0.17310455    -0.01000
C2062       C  0.48955129  0.70026561  0.17256925    -0.06200
H2063       H  0.49279561  0.66390015  0.18074910     0.06300
H2064       H  0.46930172  0.71205272  0.17109482     0.09700
Br2065     Br  0.51027839  0.68138178  0.20759921    -0.05900
Br2066     Br  0.54526338  0.69260757  0.14453904    -0.02800
Br2067     Br  0.46135230  0.65784048  0.18253283     0.00000
Br2068     Br  0.50066191  0.71767836  0.16826680    -0.04300
C2069       C  0.60863858  0.72788011  0.15273859    -0.11700
C2070       C  0.61846987  0.73875690  0.15793176     0.03700
C2071       C  0.62604359  0.74761641  0.14794126    -0.12300
C2072       C  0.62397578  0.74606502  0.13277765     0.18600
C2073       C  0.61394139  0.73553571  0.12757275    -0.09300
C2074       C  0.60636934  0.72658389  0.13751743    -0.02300
H2075       H  0.63373214  0.75572957  0.15203076     0.05100
C2076       C  0.63297180  0.75512862  0.12271281     0.20600
H2077       H  0.59880415  0.71843350  0.13327941     0.10300
C2078       C  0.64406120  0.74839679  0.11442987    -0.15700
C2079       C  0.65404065  0.75677848  0.10625909     0.03300
C2080       C  0.65307975  0.77231599  0.10643089    -0.11000
C2081       C  0.64146109  0.77892201  0.11415506    -0.01000
C2082       C  0.63150458  0.77049966  0.12225342    -0.06200
H2083       H  0.64520905  0.73655080  0.11465788     0.06300
H2084       H  0.64035306  0.79076643  0.11431696     0.09700
Br2085     Br  0.61000672  0.73320440  0.10702589    -0.05900
Br2086     Br  0.62197222  0.74253067  0.17840864    -0.02800
Br2087     Br  0.66857252  0.74613724  0.09525759     0.00000
Br2088     Br  0.61614276  0.78050621  0.13261800    -0.04300
C2089       C  0.77624603  0.71697890  0.09297931    -0.11700
C2090       C  0.78051415  0.73186008  0.09428567     0.03700
C2091       C  0.77001554  0.74298847  0.09281044    -0.12300
C2092       C  0.75524078  0.73963914  0.09012741     0.18600
C2093       C  0.75095269  0.72486644  0.08874600    -0.09300
C2094       C  0.76140257  0.71372739  0.09015272    -0.02300
H2095       H  0.77337933  0.75436196  0.09381125     0.05100
C2096       C  0.74440485  0.75167476  0.08915031     0.20600
H2097       H  0.75781436  0.70242626  0.08919585     0.10300
C2098       C  0.73758783  0.75470873  0.07568079    -0.15700
C2099       C  0.72668658  0.76549391  0.07463527     0.03300
C2100       C  0.72253406  0.77349405  0.08727143    -0.11000
C2101       C  0.72990563  0.77089302  0.10054835    -0.01000
C2102       C  0.74064158  0.76001334  0.10159815    -0.06200
H2103       H  0.74062529  0.74850136  0.06599546     0.06300
H2104       H  0.72681527  0.77685339  0.11037894     0.09700
Br2105     Br  0.73087452  0.71931437  0.08550292    -0.05900
Br2106     Br  0.80039593  0.73794900  0.09769336    -0.02800
Br2107     Br  0.71816197  0.76890004  0.05564167     0.00000
Br2108     Br  0.74900251  0.75619870  0.12054514    -0.04300
C2109       C  0.66710524  0.60637194  0.18856363    -0.11700
C2110       C  0.66617330  0.61871244  0.19796885     0.03700
C2111       C  0.65439593  0.62843316  0.19660562    -0.12300
C2112       C  0.64342164  0.62612754  0.18608543     0.18600
C2113       C  0.64398816  0.61356236  0.17713669    -0.09300
C2114       C  0.65575192  0.60379840  0.17843710    -0.02300
H2115       H  0.65404548  0.63815573  0.20346729     0.05100
C2116       C  0.63211527  0.63754148  0.18401734     0.20600
H2117       H  0.65617018  0.59431526  0.17126846     0.10300
C2118       C  0.63225413  0.64599940  0.17115367    -0.15700
C2119       C  0.62260884  0.65782827  0.16937006     0.03300
C2120       C  0.61273808  0.66149001  0.18080589    -0.11000
C2121       C  0.61244779  0.65271317  0.19350010    -0.01000
C2122       C  0.62193661  0.64080735  0.19512748    -0.06200
H2123       H  0.64014916  0.64356922  0.16258799     0.06300
H2124       H  0.60485284  0.65516639  0.20232064     0.09700
Br2125     Br  0.62901975  0.60939299  0.16292920    -0.05900
Br2126     Br  0.68102947  0.62381050  0.21207302    -0.02800
Br2127     Br  0.62412277  0.66870820  0.15136168     0.00000
Br2128     Br  0.62043789  0.62919632  0.21263159    -0.04300
C2129       C  0.77469763  0.65289529  0.11536341    -0.11700
C2130       C  0.76186473  0.65860293  0.12194188     0.03700
C2131       C  0.75196357  0.64915162  0.12882248    -0.12300
C2132       C  0.75460671  0.63401845  0.12938973     0.18600
C2133       C  0.76682734  0.62815721  0.12193938    -0.09300
C2134       C  0.77676550  0.63761024  0.11495786    -0.02300
H2135       H  0.74238598  0.65368025  0.13423433     0.05100
C2136       C  0.74531623  0.62486451  0.13903287     0.20600
H2137       H  0.78641105  0.63304323  0.10968842     0.10300
C2138       C  0.73562459  0.61456138  0.13298303    -0.15700
C2139       C  0.72683892  0.60573032  0.14202735     0.03300
C2140       C  0.72776242  0.60713119  0.15748653    -0.11000
C2141       C  0.73728709  0.61775131  0.16341239    -0.01000
C2142       C  0.74598331  0.62655102  0.15436784    -0.06200
H2143       H  0.73487779  0.61341971  0.12116336     0.06300
H2144       H  0.73817861  0.61911303  0.17519328     0.09700
Br2145     Br  0.77078976  0.60746051  0.12175068    -0.05900
Br2146     Br  0.75697001  0.67912699  0.12166259    -0.02800
Br2147     Br  0.71362977  0.59240911  0.13241650     0.00000
Br2148     Br  0.75898420  0.64044698  0.16350324    -0.04300
C2149       C  0.68898927  0.89236986  0.17048949    -0.11700
C2150       C  0.70262283  0.88784716  0.16462498     0.03700
C2151       C  0.70301816  0.87721242  0.15354564    -0.12300
C2152       C  0.69002981  0.87094084  0.14820911     0.18600
C2153       C  0.67642973  0.87565375  0.15383712    -0.09300
C2154       C  0.67599435  0.88643601  0.16473602    -0.02300
H2155       H  0.71351201  0.87363199  0.14923005     0.05100
C2156       C  0.69090396  0.85881443  0.13750531     0.20600
H2157       H  0.66546613  0.88962612  0.16927011     0.10300
C2158       C  0.69551910  0.84496359  0.14232013    -0.15700
C2159       C  0.69572182  0.83294536  0.13275753     0.03300
C2160       C  0.69082631  0.83464930  0.11811212    -0.11000
C2161       C  0.68693926  0.84876896  0.11317530    -0.01000
C2162       C  0.68708893  0.86081291  0.12269972    -0.06200
H2163       H  0.69891703  0.84349089  0.15362925     0.06300
H2164       H  0.68355126  0.85045336  0.10190832     0.09700
Br2165     Br  0.65824673  0.86685435  0.14787211    -0.05900
Br2166     Br  0.72102219  0.89588996  0.17106403    -0.02800
Br2167     Br  0.70346978  0.81486297  0.14036128     0.00000
Br2168     Br  0.68224210  0.87982020  0.11502574    -0.04300
C2169       C  0.58928730  0.78093858  0.27291893    -0.11700
C2170       C  0.58779826  0.76607189  0.27727419     0.03700
C2171       C  0.58785214  0.75493697  0.26664631    -0.12300
C2172       C  0.58920948  0.75832408  0.25171277     0.18600
C2173       C  0.59064183  0.77304783  0.24735532    -0.09300
C2174       C  0.59073467  0.78416568  0.25789593    -0.02300
H2175       H  0.58652529  0.74359850  0.27000695     0.05100
C2176       C  0.58829460  0.74653320  0.24066189     0.20600
H2177       H  0.59189684  0.79543376  0.25426008     0.10300
C2178       C  0.57498798  0.74430161  0.23329617    -0.15700
C2179       C  0.57391940  0.73409318  0.22188207     0.03300
C2180       C  0.58647254  0.72606743  0.21752714    -0.11000
C2181       C  0.59963379  0.72793140  0.22537334    -0.01000
C2182       C  0.60059723  0.73801977  0.23689517    -0.06200
H2183       H  0.56541618  0.75067157  0.23636342     0.06300
H2184       H  0.60935792  0.72178827  0.22231114     0.09700
Br2185     Br  0.59239022  0.77849366  0.22707967    -0.05900
Br2186     Br  0.58481056  0.76010787  0.29727627    -0.02800
Br2187     Br  0.55490021  0.73139637  0.21317407     0.00000
Br2188     Br  0.61902117  0.74012081  0.24685217    -0.04300
C2189       C  0.54478297  0.82031262  0.31128913    -0.11700
C2190       C  0.53514992  0.82932429  0.30305624     0.03700
C2191       C  0.51999486  0.82880039  0.30573923    -0.12300
C2192       C  0.51413527  0.81952156  0.31655631     0.18600
C2193       C  0.52375222  0.81094444  0.32507301    -0.09300
C2194       C  0.53885837  0.81137543  0.32238743    -0.02300
H2195       H  0.51266603  0.83527871  0.29896433     0.05100
C2196       C  0.49797722  0.81768654  0.31758981     0.20600
H2197       H  0.54601007  0.80450161  0.32894903     0.10300
C2198       C  0.49184812  0.80419369  0.31343540    -0.15700
C2199       C  0.47664432  0.80219621  0.31291414     0.03300
C2200       C  0.46714706  0.81391223  0.31660221    -0.11000
C2201       C  0.47329975  0.82740157  0.32094208    -0.01000
C2202       C  0.48857666  0.82931893  0.32154936    -0.06200
H2203       H  0.49897682  0.79526719  0.31009214     0.06300
H2204       H  0.46619896  0.83652741  0.32377411     0.09700
Br2205     Br  0.51679288  0.79841425  0.34050236    -0.05900
Br2206     Br  0.54160289  0.84175093  0.28728787    -0.02800
Br2207     Br  0.46974729  0.78364065  0.30558881     0.00000
Br2208     Br  0.49613561  0.84788389  0.32803329    -0.04300
C2209       C  0.61300367  0.84808562  0.27943036    -0.11700
C2210       C  0.62814645  0.85062249  0.28175917     0.03700
C2211       C  0.63575191  0.86048912  0.27274077    -0.12300
C2212       C  0.62855455  0.86801983  0.26142948     0.18600
C2213       C  0.61338247  0.86597751  0.25945209    -0.09300
C2214       C  0.60573195  0.85612343  0.26843771    -0.02300
H2215       H  0.64741347  0.86215332  0.27442159     0.05100
C2216       C  0.63727684  0.87721287  0.25127279     0.20600
H2217       H  0.59410960  0.85445127  0.26653564     0.10300
C2218       C  0.64220404  0.87105418  0.23805500    -0.15700
C2219       C  0.65120306  0.87904416  0.22848750     0.03300
C2220       C  0.65535737  0.89355111  0.23208508    -0.11000
C2221       C  0.65008927  0.89980830  0.24517933    -0.01000
C2222       C  0.64122923  0.89172208  0.25480498    -0.06200
H2223       H  0.63914285  0.85989963  0.23524760     0.06300
H2224       H  0.65323207  0.91089474  0.24816394     0.09700
Br2225     Br  0.60274824  0.87628810  0.24449977    -0.05900
Br2226     Br  0.63903754  0.84141851  0.29728588    -0.02800
Br2227     Br  0.65697441  0.86971105  0.21047964     0.00000
Br2228     Br  0.63496938  0.90079792  0.27274271    -0.04300
C2229       C  0.96745956  0.66069246  0.20776577    -0.11700
C2230       C  0.97401524  0.65951898  0.19375783     0.03700
C2231       C  0.98928171  0.66058270  0.19232987    -0.12300
C2232       C  0.99821748  0.66270053  0.20466400     0.18600
C2233       C  0.99176585  0.66345225  0.21868201    -0.09300
C2234       C  0.97652739  0.66231784  0.22014335    -0.02300
H2235       H  0.99421944  0.65985374  0.18152686     0.05100
C2236       C  0.01416722  0.66473585  0.20262579     0.20600
H2237       H  0.97170835  0.66337160  0.23096739     0.10300
C2238       C  0.01932417  0.67806801  0.19694291    -0.15700
C2239       C  0.03438058  0.68072807  0.19544893     0.03300
C2240       C  0.04459604  0.66983976  0.19973703    -0.11000
C2241       C  0.03930555  0.65632969  0.20505654    -0.01000
C2242       C  0.02424748  0.65370325  0.20644109    -0.06200
H2243       H  0.01157245  0.68657646  0.19394241     0.06300
H2244       H  0.04692177  0.64776935  0.20827985     0.09700
Br2245     Br  0.00323591  0.66692141  0.23602163    -0.05900
Br2246     Br  0.96285503  0.65596445  0.17625760    -0.02800
Br2247     Br  0.04002570  0.69976154  0.18830861     0.00000
Br2248     Br  0.01789332  0.63490176  0.21352454    -0.04300
C2249       C  0.89713523  0.66841783  0.17789014    -0.11700
C2250       C  0.89855726  0.67947323  0.16711556     0.03700
C2251       C  0.88797265  0.68079385  0.15606898    -0.12300
C2252       C  0.87582744  0.67136713  0.15565318     0.18600
C2253       C  0.87456588  0.66010187  0.16613925    -0.09300
C2254       C  0.88525757  0.65860248  0.17706225    -0.02300
H2255       H  0.88904430  0.68941363  0.14793235     0.05100
C2256       C  0.86422077  0.67384667  0.14462893     0.20600
H2257       H  0.88391638  0.65015464  0.18532563     0.10300
C2258       C  0.86361219  0.66494534  0.13211810    -0.15700
C2259       C  0.85236705  0.66662906  0.12177030     0.03300
C2260       C  0.84135430  0.67742915  0.12395837    -0.11000
C2261       C  0.84228798  0.68652251  0.13642200    -0.01000
C2262       C  0.85357049  0.68481312  0.14667602    -0.06200
H2263       H  0.87188159  0.65654729  0.13047305     0.06300
H2264       H  0.83405332  0.69488087  0.13838622     0.09700
Br2265     Br  0.85793200  0.64716696  0.16646301    -0.05900
Br2266     Br  0.91476933  0.69294057  0.16674971    -0.02800
Br2267     Br  0.85296202  0.65371126  0.10510237     0.00000
Br2268     Br  0.85374636  0.69735907  0.16360932    -0.04300
C2269       C  0.73204211  0.57857199  0.22315518    -0.11700
C2270       C  0.72774941  0.58370369  0.23722118     0.03700
C2271       C  0.73754467  0.58279265  0.24898989    -0.12300
C2272       C  0.75167411  0.57712954  0.24703558     0.18600
C2273       C  0.75610831  0.57226906  0.23309403    -0.09300
C2274       C  0.74629657  0.57289880  0.22132846    -0.02300
H2275       H  0.73421838  0.58674941  0.25970775     0.05100
C2276       C  0.76192209  0.57697244  0.25951429     0.20600
H2277       H  0.74994284  0.56910982  0.21066068     0.10300
C2278       C  0.76483989  0.56372725  0.26673518    -0.15700
C2279       C  0.77527126  0.56303935  0.27798806     0.03300
C2280       C  0.78295049  0.57591378  0.28220221    -0.11000
C2281       C  0.77962784  0.58922401  0.27508783    -0.01000
C2282       C  0.76924347  0.58981549  0.26384677    -0.06200
H2283       H  0.75918538  0.55381182  0.26336255     0.06300
H2284       H  0.78537488  0.59922309  0.27802162     0.09700
Br2285     Br  0.77570592  0.56537253  0.22955935    -0.05900
Br2286     Br  0.70900776  0.59247977  0.24137385    -0.02800
Br2287     Br  0.77872516  0.54401825  0.28643823     0.00000
Br2288     Br  0.76589995  0.60823944  0.25417635    -0.04300
C2289       C  0.85072034  0.59411330  0.28351747    -0.11700
C2290       C  0.85383425  0.58971237  0.26894893     0.03700
C2291       C  0.86305766  0.59836097  0.26021832    -0.12300
C2292       C  0.86930984  0.61125666  0.26580398     0.18600
C2293       C  0.86662447  0.61538499  0.28039403    -0.09300
C2294       C  0.85741588  0.60684430  0.28911456    -0.02300
H2295       H  0.86531234  0.59507544  0.24900560     0.05100
C2296       C  0.87844533  0.62048423  0.25624686     0.20600
H2297       H  0.85522651  0.61041485  0.30024176     0.10300
C2298       C  0.87219204  0.63288771  0.24969066    -0.15700
C2299       C  0.88070340  0.64236146  0.24114481     0.03300
C2300       C  0.89574409  0.63921027  0.23881952    -0.11000
C2301       C  0.90188043  0.62664739  0.24532736    -0.01000
C2302       C  0.89339672  0.61742507  0.25415665    -0.06200
H2303       H  0.86066959  0.63530740  0.25142510     0.06300
H2304       H  0.91344286  0.62420536  0.24389895     0.09700
Br2305     Br  0.87529000  0.63263898  0.28883241    -0.05900
Br2306     Br  0.84632171  0.57195253  0.26038972    -0.02800
Br2307     Br  0.87091827  0.65914487  0.23290747     0.00000
Br2308     Br  0.90276855  0.60123486  0.26381065    -0.04300
C2309       C  0.92114145  0.76193274  0.29338315    -0.11700
C2310       C  0.90789765  0.75710491  0.28691995     0.03700
C2311       C  0.90822265  0.74606819  0.27625267    -0.12300
C2312       C  0.92154688  0.73968175  0.27200569     0.18600
C2313       C  0.93477035  0.74473781  0.27817251    -0.09300
C2314       C  0.93447714  0.75571158  0.28885671    -0.02300
H2315       H  0.89800875  0.74208680  0.27161701     0.05100
C2316       C  0.92142340  0.72711693  0.26185077     0.20600
H2317       H  0.94471546  0.75939331  0.29365615     0.10300
C2318       C  0.91860470  0.72941081  0.24692691    -0.15700
C2319       C  0.91892638  0.71770027  0.23697804     0.03300
C2320       C  0.92244369  0.70339883  0.24199293    -0.11000
C2321       C  0.92484910  0.70118961  0.25709019    -0.01000
C2322       C  0.92411813  0.71283953  0.26700040    -0.06200
H2323       H  0.91617130  0.74038707  0.24300806     0.06300
H2324       H  0.92711436  0.69029566  0.26130508     0.09700
Br2325     Br  0.95345422  0.73689531  0.27238746    -0.05900
Br2326     Br  0.88898585  0.76409765  0.29311281    -0.02800
Br2327     Br  0.91411847  0.72218423  0.21693855     0.00000
Br2328     Br  0.92626639  0.70871223  0.28756746    -0.04300
C2329       C  0.04296901  0.80249789  0.32764264    -0.11700
C2330       C  0.03608968  0.81612601  0.32481232     0.03700
C2331       C  0.02076324  0.81726574  0.32565880    -0.12300
C2332       C  0.01213680  0.80500972  0.32917615     0.18600
C2333       C  0.01897611  0.79143077  0.33188789    -0.09300
C2334       C  0.03422953  0.79033667  0.33133273    -0.02300
H2335       H  0.01552984  0.82771404  0.32343166     0.05100
C2336       C  0.99598108  0.80620009  0.32911452     0.20600
H2337       H  0.03924195  0.77970642  0.33324138     0.10300
C2338       C  0.98863831  0.80705476  0.31563928    -0.15700
C2339       C  0.97333473  0.80594282  0.31493609     0.03300
C2340       C  0.96515812  0.80373358  0.32796153    -0.11000
C2341       C  0.97254128  0.80375305  0.34150538    -0.01000
C2342       C  0.98780267  0.80517735  0.34216569    -0.06200
H2343       H  0.99490085  0.80797281  0.30556227     0.06300
H2344       H  0.96643731  0.80242875  0.35163605     0.09700
Br2345     Br  0.00793440  0.77379376  0.33532952    -0.05900
Br2346     Br  0.04686786  0.83358892  0.32000402    -0.02800
Br2347     Br  0.96462223  0.80631186  0.29574114     0.00000
Br2348     Br  0.99707105  0.80554571  0.36107097    -0.04300
C2349       C  0.81751394  0.66332639  0.39575446    -0.11700
C2350       C  0.81715501  0.66510596  0.38032612     0.03700
C2351       C  0.81590564  0.65280842  0.37124573    -0.12300
C2352       C  0.81485244  0.63865716  0.37715317     0.18600
C2353       C  0.81486958  0.63682672  0.39248518    -0.09300
C2354       C  0.81626274  0.64910126  0.40164968    -0.02300
H2355       H  0.81604236  0.65425937  0.35943350     0.05100
C2356       C  0.81466513  0.62600848  0.36698894     0.20600
H2357       H  0.81631714  0.64750837  0.41343221     0.10300
C2358       C  0.82721642  0.61720743  0.36579797    -0.15700
C2359       C  0.82818224  0.60617600  0.35513552     0.03300
C2360       C  0.81627204  0.60373015  0.34541320    -0.11000
C2361       C  0.80360760  0.61245036  0.34689637    -0.01000
C2362       C  0.80275020  0.62349645  0.35751930    -0.06200
H2363       H  0.83651863  0.61926137  0.37292392     0.06300
H2364       H  0.79434315  0.61083749  0.33961747     0.09700
Br2365     Br  0.81269116  0.61783125  0.40132208    -0.05900
Br2366     Br  0.81917785  0.68377521  0.37070019    -0.02800
Br2367     Br  0.84643387  0.59563035  0.35420635     0.00000
Br2368     Br  0.78507662  0.63488950  0.35871099    -0.04300
C2369       C  0.85716188  0.72335743  0.40601832    -0.11700
C2370       C  0.86910149  0.71733929  0.39810887     0.03700
C2371       C  0.87845476  0.72661896  0.39020070    -0.12300
C2372       C  0.87614160  0.74181810  0.39001707     0.18600
C2373       C  0.86481560  0.74791449  0.39850028    -0.09300
C2374       C  0.85552897  0.73871992  0.40651527    -0.02300
H2375       H  0.88720870  0.72191124  0.38365663     0.05100
C2376       C  0.88413155  0.75082615  0.37925433     0.20600
H2377       H  0.84651602  0.74361362  0.41254528     0.10300
C2378       C  0.87795976  0.75255828  0.36531328    -0.15700
C2379       C  0.88496412  0.76093304  0.35456666     0.03300
C2380       C  0.89863189  0.76768260  0.35772084    -0.11000
C2381       C  0.90470410  0.76596073  0.37182732    -0.01000
C2382       C  0.89753108  0.75766570  0.38257644    -0.06200
H2383       H  0.86752698  0.74738909  0.36281572     0.06300
H2384       H  0.91507245  0.77108859  0.37455300     0.09700
Br2385     Br  0.86103898  0.76864875  0.39857890    -0.05900
Br2386     Br  0.87321985  0.69667539  0.39735955    -0.02800
Br2387     Br  0.87481397  0.76272367  0.33614797     0.00000
Br2388     Br  0.90625680  0.75614140  0.40165559    -0.04300
C2389       C  0.77705353  0.91724347  0.29032578    -0.11700
C2390       C  0.77454348  0.90584284  0.28008328     0.03700
C2391       C  0.76358175  0.90744673  0.26945895    -0.12300
C2392       C  0.75520640  0.92033404  0.26859841     0.18600
C2393       C  0.75807511  0.93191546  0.27839589    -0.09300
C2394       C  0.76885359  0.93027278  0.28916576    -0.02300
H2395       H  0.76136031  0.89845207  0.26198355     0.05100
C2396       C  0.74300668  0.92107700  0.25795739     0.20600
H2397       H  0.77078064  0.93925211  0.29673339     0.10300
C2398       C  0.72854654  0.92153562  0.26319812    -0.15700
C2399       C  0.71662614  0.92119794  0.25354492     0.03300
C2400       C  0.71914381  0.92032881  0.23822924    -0.11000
C2401       C  0.73368924  0.92003686  0.23305434    -0.01000
C2402       C  0.74554973  0.92042690  0.24275281    -0.06200
H2403       H  0.72653092  0.92185796  0.27491790     0.06300
H2404       H  0.73590039  0.91949651  0.22137652     0.09700
Br2405     Br  0.74773987  0.95025163  0.27736359    -0.05900
Br2406     Br  0.78493151  0.88750010  0.28035121    -0.02800
Br2407     Br  0.69740088  0.92132360  0.26227409     0.00000
Br2408     Br  0.76502724  0.92035451  0.23471980    -0.04300
C2409       C  0.84219711  0.88650815  0.32738818    -0.11700
C2410       C  0.84313959  0.87560794  0.33837315     0.03700
C2411       C  0.85470602  0.86550169  0.33814734    -0.12300
C2412       C  0.86543866  0.86603148  0.32712953     0.18600
C2413       C  0.86468857  0.87705827  0.31634015    -0.09300
C2414       C  0.85307575  0.88712961  0.31647661    -0.02300
H2415       H  0.85507458  0.85687379  0.34633109     0.05100
C2416       C  0.87650100  0.85418313  0.32636802     0.20600
H2417       H  0.85252086  0.89546164  0.30800419     0.10300
C2418       C  0.87496597  0.84332136  0.31558848    -0.15700
C2419       C  0.88444115  0.83126337  0.31511359     0.03300
C2420       C  0.89577675  0.82993225  0.32563940    -0.11000
C2421       C  0.89737381  0.84093140  0.33635253    -0.01000
C2422       C  0.88788369  0.85302305  0.33672950    -0.06200
H2423       H  0.86607695  0.84405414  0.30771122     0.06300
H2424       H  0.90602571  0.84012733  0.34447035     0.09700
Br2425     Br  0.87935777  0.87878025  0.30132644    -0.05900
Br2426     Br  0.82823279  0.87300921  0.35306706    -0.02800
Br2427     Br  0.88043185  0.81654975  0.30050590     0.00000
Br2428     Br  0.89093326  0.86781136  0.35140467    -0.04300
C2429       C  0.73021956  0.78018254  0.42214752    -0.11700
C2430       C  0.73604977  0.77354890  0.43491175     0.03700
C2431       C  0.74626184  0.76212612  0.43363611    -0.12300
C2432       C  0.75100615  0.75723703  0.41983754     0.18600
C2433       C  0.74487588  0.76347854  0.40710300    -0.09300
C2434       C  0.73451220  0.77476958  0.40833378    -0.02300
H2435       H  0.75086756  0.75730555  0.44348768     0.05100
C2436       C  0.76300377  0.74629299  0.41909705     0.20600
H2437       H  0.73021780  0.77970934  0.39840838     0.10300
C2438       C  0.76030415  0.73166123  0.42310894    -0.15700
C2439       C  0.77174352  0.72134511  0.42366675     0.03300
C2440       C  0.78626959  0.72573617  0.42027614    -0.11000
C2441       C  0.78879195  0.74037504  0.41606221    -0.01000
C2442       C  0.77739069  0.75059069  0.41550971    -0.06200
H2443       H  0.74926747  0.72831804  0.42604932     0.06300
H2444       H  0.79978791  0.74403598  0.41339626     0.09700
Br2445     Br  0.75059149  0.75718084  0.38782554    -0.05900
Br2446     Br  0.73054996  0.77942692  0.45440431    -0.02800
Br2447     Br  0.76674552  0.70179075  0.42979484     0.00000
Br2448     Br  0.78223975  0.77051007  0.41062020    -0.04300
C2449       C  0.66856056  0.81806693  0.39642485    -0.11700
C2450       C  0.65688167  0.80790658  0.39769153     0.03700
C2451       C  0.64564012  0.80783708  0.38719276    -0.12300
C2452       C  0.64587420  0.81760427  0.37529131     0.18600
C2453       C  0.65729860  0.82793663  0.37420160    -0.09300
C2454       C  0.66840282  0.82817392  0.38475396    -0.02300
H2455       H  0.63678697  0.79994142  0.38815610     0.05100
C2456       C  0.63450726  0.81651319  0.36375672     0.20600
H2457       H  0.67725650  0.83601642  0.38349428     0.10300
C2458       C  0.62445483  0.82800477  0.36192541    -0.15700
C2459       C  0.61440879  0.82795576  0.35029906     0.03300
C2460       C  0.61410552  0.81599978  0.34034658    -0.11000
C2461       C  0.62393889  0.80426816  0.34257568    -0.01000
C2462       C  0.63414651  0.80451822  0.35404307    -0.06200
H2463       H  0.62474975  0.83730261  0.36934408     0.06300
H2464       H  0.62405973  0.79503468  0.33507558     0.09700
Br2465     Br  0.65879109  0.84130239  0.35796750    -0.05900
Br2466     Br  0.65541140  0.79397318  0.41343107    -0.02800
Br2467     Br  0.60218320  0.84502961  0.34841021     0.00000
Br2468     Br  0.64814988  0.78880123  0.35534206    -0.04300
C2469       C  0.73239431  0.84806682  0.40032245    -0.11700
C2470       C  0.72696784  0.86148672  0.39472434     0.03700
C2471       C  0.73602359  0.87040461  0.38604506    -0.12300
C2472       C  0.75046669  0.86620757  0.38279325     0.18600
C2473       C  0.75593945  0.85292298  0.38845633    -0.09300
C2474       C  0.74691043  0.84396176  0.39707229    -0.02300
H2475       H  0.73168889  0.88053422  0.38154958     0.05100
C2476       C  0.75947738  0.87546523  0.37294521     0.20600
H2477       H  0.75124899  0.83367069  0.40118775     0.10300
C2478       C  0.76991701  0.88506862  0.37892618    -0.15700
C2479       C  0.77907657  0.89345896  0.36982228     0.03300
C2480       C  0.77785180  0.89224396  0.35438405    -0.11000
C2481       C  0.76720296  0.88274689  0.34849571    -0.01000
C2482       C  0.75804237  0.87446117  0.35761088    -0.06200
H2483       H  0.77111122  0.88583508  0.39073588     0.06300
H2484       H  0.76602880  0.88168082  0.33670491     0.09700
Br2485     Br  0.77551527  0.84636963  0.38427276    -0.05900
Br2486     Br  0.70701634  0.86770534  0.39746122    -0.02800
Br2487     Br  0.79360954  0.90549969  0.37922433     0.00000
Br2488     Br  0.74399871  0.86158333  0.34863404    -0.04300
C2489       C  0.69355459  0.53694083  0.18257304    -0.11700
C2490       C  0.70293518  0.52652621  0.17586285     0.03700
C2491       C  0.69938114  0.51159530  0.17636379    -0.12300
C2492       C  0.68648488  0.50667915  0.18318085     0.18600
C2493       C  0.67683136  0.51702668  0.18936482    -0.09300
C2494       C  0.68042224  0.53197706  0.18906501    -0.02300
H2495       H  0.70695128  0.50367747  0.17169071     0.05100
C2496       C  0.68409269  0.49065697  0.18468420     0.20600
H2497       H  0.67294180  0.53974017  0.19408638     0.10300
C2498       C  0.68475485  0.48431041  0.19869683    -0.15700
C2499       C  0.68509651  0.46904766  0.20046955     0.03300
C2500       C  0.68482380  0.45981727  0.18798251    -0.11000
C2501       C  0.68340105  0.46621495  0.17401686    -0.01000
C2502       C  0.68301469  0.48147143  0.17230069    -0.06200
H2503       H  0.68578758  0.49129018  0.20827827     0.06300
H2504       H  0.68304019  0.45932310  0.16431721     0.09700
Br2505     Br  0.65858369  0.51125978  0.19817954    -0.05900
Br2506     Br  0.72111951  0.53155007  0.16643860    -0.02800
Br2507     Br  0.68756612  0.46177880  0.22011595     0.00000
Br2508     Br  0.68138522  0.48928286  0.15280605    -0.04300
C2509       C  0.72184503  0.39328303  0.16209536    -0.11700
C2510       C  0.73549812  0.38746044  0.16656475     0.03700
C2511       C  0.74408252  0.37966368  0.15654401    -0.12300
C2512       C  0.73921584  0.37736841  0.14215785     0.18600
C2513       C  0.72557152  0.38301846  0.13769379    -0.09300
C2514       C  0.71709181  0.39113897  0.14759094    -0.02300
H2515       H  0.75458850  0.37527731  0.16000237     0.05100
C2516       C  0.74842701  0.36863857  0.13217234     0.20600
H2517       H  0.70655687  0.39541155  0.14407510     0.10300
C2518       C  0.74716435  0.35333774  0.13241878    -0.15700
C2519       C  0.75633223  0.34457400  0.12380062     0.03300
C2520       C  0.76710453  0.35118169  0.11478580    -0.11000
C2521       C  0.76807643  0.36658883  0.11430800    -0.01000
C2522       C  0.75887696  0.37531830  0.12299529    -0.06200
H2523       H  0.73902621  0.34819269  0.13941974     0.06300
H2524       H  0.77623566  0.37184903  0.10743009     0.09700
Br2525     Br  0.71793226  0.37938893  0.11841730    -0.05900
Br2526     Br  0.74331809  0.39019002  0.18597451    -0.02800
Br2527     Br  0.75302934  0.32374401  0.12440187     0.00000
Br2528     Br  0.76110386  0.39626722  0.12236304    -0.04300
C2529       C  0.96386397  0.32608531  0.19546196    -0.11700
C2530       C  0.97127234  0.32100354  0.18274590     0.03700
C2531       C  0.98668665  0.32090798  0.18235940    -0.12300
C2532       C  0.99494969  0.32586657  0.19437816     0.18600
C2533       C  0.98760695  0.33137848  0.20678777    -0.09300
C2534       C  0.97228751  0.33146939  0.20723377    -0.02300
H2535       H  0.99227490  0.31679603  0.17269388     0.05100
C2536       C  0.01119681  0.32496490  0.19407958     0.20600
H2537       H  0.96696309  0.33543113  0.21710427     0.10300
C2538       C  0.01948048  0.33793017  0.19354525    -0.15700
C2539       C  0.03480415  0.33763353  0.19487505     0.03300
C2540       C  0.04218404  0.32405385  0.19661299    -0.11000
C2541       C  0.03382128  0.31104581  0.19652495    -0.01000
C2542       C  0.01849992  0.31141969  0.19541063    -0.06200
H2543       H  0.01392306  0.34840252  0.19249654     0.06300
H2544       H  0.03915125  0.30050303  0.19792204     0.09700
Br2545     Br  0.99801413  0.33814744  0.22381280    -0.05900
Br2546     Br  0.96127026  0.31398038  0.16556175    -0.02800
Br2547     Br  0.04470868  0.35624481  0.19438544     0.00000
Br2548     Br  0.00795492  0.29323389  0.19694534    -0.04300
C2549       C  0.89102801  0.32049862  0.16777287    -0.11700
C2550       C  0.87873479  0.31097618  0.16749498     0.03700
C2551       C  0.86845345  0.31211835  0.15618875    -0.12300
C2552       C  0.87003179  0.32258650  0.14504019     0.18600
C2553       C  0.88216678  0.33216367  0.14532141    -0.09300
C2554       C  0.89255511  0.33101774  0.15657778    -0.02300
H2555       H  0.85891828  0.30499169  0.15627762     0.05100
C2556       C  0.85831844  0.32387529  0.13386772     0.20600
H2557       H  0.90180398  0.33849278  0.15662882     0.10300
C2558       C  0.84975787  0.33665268  0.13349145    -0.15700
C2559       C  0.83769280  0.33782191  0.12408563     0.03300
C2560       C  0.83392611  0.32592277  0.11482797    -0.11000
C2561       C  0.84269868  0.31322055  0.11506658    -0.01000
C2562       C  0.85477542  0.31211495  0.12447186    -0.06200
H2563       H  0.85222005  0.34562375  0.14091567     0.06300
H2564       H  0.84005445  0.30399580  0.10803271     0.09700
Br2565     Br  0.88504885  0.34695082  0.13059196    -0.05900
Br2566     Br  0.87448640  0.29682640  0.18257545    -0.02800
Br2567     Br  0.82636890  0.35557004  0.12542487     0.00000
Br2568     Br  0.86604288  0.29429648  0.12413117    -0.04300
C2569       C  0.78565836  0.41425349  0.27581049    -0.11700
C2570       C  0.77161580  0.41905307  0.28033029     0.03700
C2571       C  0.76026914  0.42023279  0.27004712    -0.12300
C2572       C  0.76264929  0.41666746  0.25527437     0.18600
C2573       C  0.77669711  0.41219015  0.25068901    -0.09300
C2574       C  0.78809801  0.41114283  0.26090854    -0.02300
H2575       H  0.74950874  0.42387188  0.27358777     0.05100
C2576       C  0.75029234  0.41737076  0.24482740     0.20600
H2577       H  0.79881309  0.40750245  0.25725454     0.10300
C2578       C  0.74929854  0.42921480  0.23507221    -0.15700
C2579       C  0.73802899  0.42989773  0.22464870     0.03300
C2580       C  0.72749046  0.41850634  0.22389174    -0.11000
C2581       C  0.72836382  0.40684906  0.23397304    -0.01000
C2582       C  0.73966084  0.40619556  0.24433463    -0.06200
H2583       H  0.75738668  0.43792918  0.23553696     0.06300
H2584       H  0.72045374  0.39797065  0.23355707     0.09700
Br2585     Br  0.78059249  0.40675648  0.23071417    -0.05900
Br2586     Br  0.76738497  0.42481795  0.30016409    -0.02800
Br2587     Br  0.73746041  0.44693532  0.21224170     0.00000
Br2588     Br  0.74055764  0.38952330  0.25718295    -0.04300
C2589       C  0.82258923  0.45413521  0.31617524    -0.11700
C2590       C  0.81103395  0.46382664  0.31251574     0.03700
C2591       C  0.81278261  0.47890338  0.31465342    -0.12300
C2592       C  0.82591786  0.48461001  0.32020879     0.18600
C2593       C  0.83738187  0.47502632  0.32404266    -0.09300
C2594       C  0.83565710  0.45989980  0.32200943    -0.02300
H2595       H  0.80402626  0.48630399  0.31145788     0.05100
C2596       C  0.82760472  0.50067894  0.32082703     0.20600
H2597       H  0.84464299  0.45262794  0.32483381     0.10300
C2598       C  0.82048586  0.50859106  0.33192710    -0.15700
C2599       C  0.81985314  0.52394900  0.33148537     0.03300
C2600       C  0.82645458  0.53160156  0.31967854    -0.11000
C2601       C  0.83422338  0.52356568  0.30901469    -0.01000
C2602       C  0.83470329  0.50825759  0.30942876    -0.06200
H2603       H  0.81497849  0.50275215  0.34070728     0.06300
H2604       H  0.83931927  0.52913863  0.29982336     0.09700
Br2605     Br  0.85561835  0.48216490  0.33174982    -0.05900
Br2606     Br  0.79317516  0.45756007  0.30322275    -0.02800
Br2607     Br  0.80961085  0.53355331  0.34721187     0.00000
Br2608     Br  0.84408211  0.49811543  0.29350127    -0.04300
C2609       C  0.85179716  0.38941148  0.28018047    -0.11700
C2610       C  0.86194501  0.39729621  0.27139047     0.03700
C2611       C  0.87112378  0.38974377  0.26162027    -0.12300
C2612       C  0.87053165  0.37442334  0.26044714     0.18600
C2613       C  0.86117551  0.36649355  0.26986009    -0.09300
C2614       C  0.85185325  0.37398219  0.27949731    -0.02300
H2615       H  0.87848718  0.39589465  0.25458091     0.05100
C2616       C  0.87933735  0.36692610  0.24901107     0.20600
H2617       H  0.84448160  0.36767008  0.28636572     0.10300
C2618       C  0.89466362  0.36636338  0.25030558    -0.15700
C2619       C  0.90315885  0.35854739  0.24011862     0.03300
C2620       C  0.89623964  0.35088908  0.22853312    -0.11000
C2621       C  0.88094446  0.35205522  0.22691115    -0.01000
C2622       C  0.87254777  0.36024158  0.23683843    -0.06200
H2623       H  0.90000261  0.37174024  0.25947830     0.06300
H2624       H  0.87548943  0.34654021  0.21790279     0.09700
Br2625     Br  0.86078157  0.34541434  0.26997451    -0.05900
Br2626     Br  0.86357846  0.41833302  0.27149423    -0.02800
Br2627     Br  0.92398442  0.35793161  0.24327242     0.00000
Br2628     Br  0.85189207  0.36233295  0.23318764    -0.04300
C2629       C  0.53439467  0.30811936  0.18366517    -0.11700
C2630       C  0.52482428  0.30646322  0.19577199     0.03700
C2631       C  0.50971361  0.30808724  0.19377645    -0.12300
C2632       C  0.50394580  0.31153657  0.17996255     0.18600
C2633       C  0.51348344  0.31410667  0.16811881    -0.09300
C2634       C  0.52859766  0.31224291  0.16998800    -0.02300
H2635       H  0.50235675  0.30601057  0.20289472     0.05100
C2636       C  0.48798730  0.31040403  0.17778381     0.20600
H2637       H  0.53581952  0.31373776  0.16064584     0.10300
C2638       C  0.47901080  0.32275237  0.17970619    -0.15700
C2639       C  0.46369852  0.32145694  0.17894174     0.03300
C2640       C  0.45728270  0.30762984  0.17611566    -0.11000
C2641       C  0.46638974  0.29544731  0.17365140    -0.01000
C2642       C  0.48160655  0.29670860  0.17463193    -0.06200
H2643       H  0.48391700  0.33333074  0.18206910     0.06300
H2644       H  0.46163589  0.28472693  0.17160667     0.09700
Br2645     Br  0.50623884  0.31953529  0.14912561    -0.05900
Br2646     Br  0.53136896  0.30063563  0.21496156    -0.02800
Br2647     Br  0.45216038  0.33889632  0.18148662     0.00000
Br2648     Br  0.49325949  0.27928551  0.17232217    -0.04300
C2649       C  0.65950672  0.38836199  0.19268021    -0.11700
C2650       C  0.65264391  0.38372691  0.20583633     0.03700
C2651       C  0.64177910  0.37287783  0.20538000    -0.12300
C2652       C  0.63771994  0.36635546  0.19207887     0.18600
C2653       C  0.64426042  0.37111326  0.17894194    -0.09300
C2654       C  0.65496264  0.38209734  0.17930437    -0.02300
H2655       H  0.63670257  0.36923975  0.21551170     0.05100
C2656       C  0.62708266  0.35417285  0.19218243     0.20600
H2657       H  0.66006753  0.38540609  0.16908742     0.10300
C2658       C  0.61210113  0.35719111  0.19384943    -0.15700
C2659       C  0.60173744  0.34583869  0.19364450     0.03300
C2660       C  0.60640269  0.33116712  0.19152570    -0.11000
C2661       C  0.62150358  0.32821887  0.19038198    -0.01000
C2662       C  0.63180747  0.33955135  0.19080832    -0.06200
H2663       H  0.60847437  0.36842848  0.19532491     0.06300
H2664       H  0.62535194  0.31704313  0.18900758     0.09700
Br2665     Br  0.63917431  0.36261366  0.16033049    -0.05900
Br2666     Br  0.65744692  0.39153111  0.22482363    -0.02800
Br2667     Br  0.58162602  0.35112761  0.19714555     0.00000
Br2668     Br  0.65225310  0.33456450  0.18977457    -0.04300
C2669       C  0.71181974  0.23602510  0.08321390    -0.11700
C2670       C  0.72633560  0.23143330  0.08016666     0.03700
C2671       C  0.73776668  0.24172515  0.08009856    -0.12300
C2672       C  0.73500782  0.25658159  0.08300423     0.18600
C2673       C  0.72053960  0.26123255  0.08573177    -0.09300
C2674       C  0.70910242  0.25101735  0.08571736    -0.02300
H2675       H  0.74886828  0.23813916  0.07775886     0.05100
C2676       C  0.74721808  0.26724117  0.08306384     0.20600
H2677       H  0.69807549  0.25479195  0.08808010     0.10300
C2678       C  0.74809937  0.27761526  0.07175395    -0.15700
C2679       C  0.75834701  0.28902673  0.07230058     0.03300
C2680       C  0.76790280  0.29024698  0.08448023    -0.11000
C2681       C  0.76754341  0.27929729  0.09535827    -0.01000
C2682       C  0.75733240  0.26784057  0.09471084    -0.06200
H2683       H  0.74052909  0.27699692  0.06259797     0.06300
H2684       H  0.77490268  0.27989348  0.10467764     0.09700
Br2685     Br  0.71600559  0.28133948  0.09024184    -0.05900
Br2686     Br  0.73127479  0.21149528  0.07541519    -0.02800
Br2687     Br  0.75881000  0.30221870  0.05585259     0.00000
Br2688     Br  0.75708542  0.25374240  0.11036026    -0.04300
C2689       C  0.64332367  0.22983347  0.10822010    -0.11700
C2690       C  0.62808073  0.22798298  0.10572980     0.03700
C2691       C  0.61796432  0.23644304  0.11370584    -0.12300
C2692       C  0.62275788  0.24684343  0.12400045     0.18600
C2693       C  0.63785927  0.24870450  0.12644045    -0.09300
C2694       C  0.64793030  0.24031683  0.11858396    -0.02300
H2695       H  0.60630776  0.23486101  0.11193873     0.05100
C2696       C  0.61203171  0.25494380  0.13301928     0.20600
H2697       H  0.65950314  0.24197474  0.12076680     0.10300
C2698       C  0.60545792  0.24768766  0.14484430    -0.15700
C2699       C  0.59722941  0.25542232  0.15522439     0.03300
C2700       C  0.59537535  0.27079902  0.15374703    -0.11000
C2701       C  0.60124140  0.27785718  0.14133522    -0.01000
C2702       C  0.60960555  0.27007400  0.13106546    -0.06200
H2703       H  0.60728926  0.23602121  0.14635840     0.06300
H2704       H  0.59991557  0.28960743  0.13994520     0.09700
Br2705     Br  0.64531000  0.26214941  0.14087884    -0.05900
Br2706     Br  0.62020231  0.21422058  0.09182771    -0.02800
Br2707     Br  0.58919828  0.24416610  0.17117702     0.00000
Br2708     Br  0.61818208  0.28063738  0.11498130    -0.04300
C2709       C  0.58292142  0.20935463  0.27378693    -0.11700
C2710       C  0.58298682  0.20778540  0.25833536     0.03700
C2711       C  0.58124356  0.22013532  0.24940945    -0.12300
C2712       C  0.57970373  0.23417065  0.25549480     0.18600
C2713       C  0.58002563  0.23587068  0.27084387    -0.09300
C2714       C  0.58160821  0.22351606  0.27984205    -0.02300
H2715       H  0.58129034  0.21881825  0.23758137     0.05100
C2716       C  0.57812014  0.24678057  0.24542868     0.20600
H2717       H  0.58156769  0.22499265  0.29163758     0.10300
C2718       C  0.56511805  0.24831831  0.23733928    -0.15700
C2719       C  0.56393270  0.25889399  0.22624885     0.03300
C2720       C  0.57591174  0.26832486  0.22326674    -0.11000
C2721       C  0.58870976  0.26705675  0.23177875    -0.01000
C2722       C  0.58997555  0.25624437  0.24258430    -0.06200
H2723       H  0.55600503  0.24094149  0.23937696     0.06300
H2724       H  0.59810732  0.27399109  0.22949858     0.09700
Br2725     Br  0.57807458  0.25475085  0.27999874    -0.05900
Br2726     Br  0.58608428  0.18935885  0.24852020    -0.02800
Br2727     Br  0.54573825  0.25967800  0.21560977     0.00000
Br2728     Br  0.60858134  0.25387326  0.25215626    -0.04300
C2729       C  0.53916395  0.16861019  0.30990287    -0.11700
C2730       C  0.53162628  0.15501171  0.30993281     0.03700
C2731       C  0.51623898  0.15479620  0.30977622    -0.12300
C2732       C  0.50814317  0.16789301  0.30935878     0.18600
C2733       C  0.51561465  0.18140930  0.30966746    -0.09300
C2734       C  0.53091873  0.18166573  0.31010254    -0.02300
H2735       H  0.51054149  0.14434922  0.30967554     0.05100
C2736       C  0.49195575  0.16738812  0.30815263     0.20600
H2737       H  0.53638734  0.19222907  0.30993597     0.10300
C2738       C  0.48337511  0.17318866  0.31953837    -0.15700
C2739       C  0.46814143  0.17445334  0.31810416     0.03300
C2740       C  0.46116459  0.16947101  0.30515585    -0.11000
C2741       C  0.46975396  0.16298461  0.29408234    -0.01000
C2742       C  0.48501946  0.16209304  0.29539957    -0.06200
H2743       H  0.48864268  0.17719391  0.32942624     0.06300
H2744       H  0.46466423  0.15918304  0.28402616     0.09700
Br2745     Br  0.50551069  0.19987045  0.30827489    -0.05900
Br2746     Br  0.54144114  0.13635291  0.31003901    -0.02800
Br2747     Br  0.45774467  0.18321587  0.33423147     0.00000
Br2748     Br  0.49597894  0.15474353  0.27895672    -0.04300
C2749       C  0.68057061  0.96143096  0.19643846    -0.11700
C2750       C  0.68812120  0.96828406  0.18478007     0.03700
C2751       C  0.68773058  0.98360479  0.18336331    -0.12300
C2752       C  0.68004747  0.99230289  0.19352361     0.18600
C2753       C  0.67204923  0.98538430  0.20482012    -0.09300
C2754       C  0.67228897  0.97008640  0.20612523    -0.02300
H2755       H  0.69372947  0.98879705  0.17450310     0.05100
C2756       C  0.68120153  0.00853816  0.19274095     0.20600
H2757       H  0.66650796  0.96498134  0.21518970     0.10300
C2758       C  0.66872266  0.01698377  0.18959619    -0.15700
C2759       C  0.66924698  0.03237551  0.18993248     0.03300
C2760       C  0.68260372  0.03964533  0.19320068    -0.11000
C2761       C  0.69519748  0.03107183  0.19580775    -0.01000
C2762       C  0.69454877  0.01571222  0.19576475    -0.06200
H2763       H  0.65840469  0.01153928  0.18720898     0.06300
H2764       H  0.70551614  0.03631013  0.19853641     0.09700
Br2765     Br  0.66151315  0.99634011  0.21941211    -0.05900
Br2766     Br  0.69880611  0.95726952  0.17032397    -0.02800
Br2767     Br  0.65121887  0.04258101  0.18605277     0.00000
Br2768     Br  0.71190509  0.00500147  0.20111048    -0.04300
C2769       C  0.67990613  0.17042130  0.11371341    -0.11700
C2770       C  0.67582951  0.15605236  0.10931133     0.03700
C2771       C  0.67654521  0.14439886  0.11938202    -0.12300
C2772       C  0.68130663  0.14669517  0.13383268     0.18600
C2773       C  0.68559693  0.16087770  0.13817230    -0.09300
C2774       C  0.68488587  0.17254012  0.12819001    -0.02300
H2775       H  0.67334978  0.13346784  0.11592966     0.05100
C2776       C  0.68171590  0.13423966  0.14431430     0.20600
H2777       H  0.68810476  0.18338732  0.13187928     0.10300
C2778       C  0.69459634  0.12594692  0.14576313    -0.15700
C2779       C  0.69569231  0.11473887  0.15628565     0.03300
C2780       C  0.68364452  0.11160971  0.16561841    -0.11000
C2781       C  0.67060107  0.11970130  0.16374311    -0.01000
C2782       C  0.66960075  0.13093284  0.15328977    -0.06200
H2783       H  0.70394832  0.12839003  0.13882589     0.06300
H2784       H  0.66122052  0.11761486  0.17075007     0.09700
Br2785     Br  0.69238068  0.16482596  0.15771320    -0.05900
Br2786     Br  0.66956164  0.15133217  0.08974157    -0.02800
Br2787     Br  0.71395082  0.10424954  0.15716318     0.00000
Br2788     Br  0.65164038  0.14185082  0.15198904    -0.04300
C2789       C  0.60891659  0.14510879  0.27742182    -0.11700
C2790       C  0.62263411  0.13995264  0.28246824     0.03700
C2791       C  0.63154322  0.13161009  0.27316418    -0.12300
C2792       C  0.62698699  0.12825495  0.25887717     0.18600
C2793       C  0.61313097  0.13294845  0.25397441    -0.09300
C2794       C  0.60415059  0.14123715  0.26327973    -0.02300
H2795       H  0.64213970  0.12782455  0.27703321     0.05100
C2796       C  0.63702720  0.12017077  0.24912181     0.20600
H2797       H  0.59363611  0.14509529  0.25926715     0.10300
C2798       C  0.63711805  0.10478939  0.24937187    -0.15700
C2799       C  0.64672855  0.09683136  0.24037243     0.03300
C2800       C  0.65644178  0.10439209  0.23089915    -0.11000
C2801       C  0.65630943  0.11982864  0.23082618    -0.01000
C2802       C  0.64673679  0.12770694  0.23981682    -0.06200
H2803       H  0.62976344  0.09897201  0.25669808     0.06300
H2804       H  0.66364948  0.12585386  0.22366414     0.09700
Br2805     Br  0.60633644  0.12863502  0.23451481    -0.05900
Br2806     Br  0.62950867  0.14335080  0.30211247    -0.02800
Br2807     Br  0.64656608  0.07584153  0.24228387     0.00000
Br2808     Br  0.64737862  0.14875826  0.23911070    -0.04300
C2809       C  0.78109463  0.08596314  0.28071068    -0.11700
C2810       C  0.78207207  0.07726247  0.26787773     0.03700
C2811       C  0.77135377  0.07852757  0.25691981    -0.12300
C2812       C  0.75967845  0.08842475  0.25842833     0.18600
C2813       C  0.75908822  0.09763984  0.27078567    -0.09300
C2814       C  0.76978018  0.09644213  0.28174243    -0.02300
H2815       H  0.77186027  0.07142240  0.24738697     0.05100
C2816       C  0.74717071  0.08758891  0.24816331     0.20600
H2817       H  0.76882469  0.10328780  0.29141963     0.10300
C2818       C  0.73587701  0.07767947  0.25132728    -0.15700
C2819       C  0.72340929  0.07676344  0.24245353     0.03300
C2820       C  0.72208395  0.08596352  0.22997762    -0.11000
C2821       C  0.73358410  0.09581428  0.22677740    -0.01000
C2822       C  0.74604251  0.09668068  0.23575742    -0.06200
H2823       H  0.73673191  0.07066793  0.26090804     0.06300
H2824       H  0.73287752  0.10296405  0.21729136     0.09700
Br2825     Br  0.74328306  0.11131095  0.27351942    -0.05900
Br2826     Br  0.79767881  0.06349030  0.26454234    -0.02800
Br2827     Br  0.70891480  0.06255983  0.24825129     0.00000
Br2828     Br  0.76117032  0.11045949  0.23080356    -0.04300
C2829       C  0.81618515  0.03531211  0.32448034    -0.11700
C2830       C  0.82880097  0.02812576  0.31893261     0.03700
C2831       C  0.83039556  0.01292460  0.32079402    -0.12300
C2832       C  0.81957318  0.00464789  0.32798433     0.18600
C2833       C  0.80732384  0.01186533  0.33400695    -0.09300
C2834       C  0.80578799  0.02703620  0.33234003    -0.02300
H2835       H  0.83988018  0.00743320  0.31616182     0.05100
C2836       C  0.82027902  0.98840965  0.32765872     0.20600
H2837       H  0.79604834  0.03227870  0.33673203     0.10300
C2838       C  0.82254114  0.98047793  0.34067568    -0.15700
C2839       C  0.82132798  0.96511775  0.34084893     0.03300
C2840       C  0.81811348  0.95746556  0.32774745    -0.11000
C2841       C  0.81660633  0.96542224  0.31463295    -0.01000
C2842       C  0.81742112  0.98074700  0.31455090    -0.06200
H2843       H  0.82475852  0.98629972  0.35081610     0.06300
H2844       H  0.81390384  0.95976656  0.30452725     0.09700
Br2845     Br  0.79173805  0.00131407  0.34348722    -0.05900
Br2846     Br  0.84423262  0.03822131  0.30869476    -0.02800
Br2847     Br  0.82417772  0.95521750  0.35922404     0.00000
Br2848     Br  0.81304488  0.99082798  0.29656529    -0.04300
C2849       C  0.60883822  0.17334818  0.33981857    -0.11700
C2850       C  0.61135174  0.18571242  0.34881981     0.03700
C2851       C  0.62243203  0.18529793  0.35946399    -0.12300
C2852       C  0.63140742  0.17286804  0.36108085     0.18600
C2853       C  0.62857292  0.16035907  0.35240424    -0.09300
C2854       C  0.61727059  0.16063926  0.34202736    -0.02300
H2855       H  0.62433294  0.19488069  0.36626077     0.05100
C2856       C  0.64402637  0.17336853  0.37136845     0.20600
H2857       H  0.61559498  0.15110905  0.33510173     0.10300
C2858       C  0.64457508  0.16360488  0.38326540    -0.15700
C2859       C  0.65672893  0.16325357  0.39268553     0.03300
C2860       C  0.66865203  0.17295146  0.39032425    -0.11000
C2861       C  0.66776798  0.18309006  0.37872864    -0.01000
C2862       C  0.65569427  0.18330998  0.36926368    -0.06200
H2863       H  0.63553763  0.15609337  0.38513437     0.06300
H2864       H  0.67674307  0.19062761  0.37668530     0.09700
Br2865     Br  0.64054698  0.14304041  0.35335339    -0.05900
Br2866     Br  0.59997906  0.20338500  0.34721592    -0.02800
Br2867     Br  0.65603678  0.14944084  0.40860979     0.00000
Br2868     Br  0.65618958  0.19679817  0.35307245    -0.04300
C2869       C  0.78088417  0.09601346  0.35110164    -0.11700
C2870       C  0.76680787  0.09030894  0.35433844     0.03700
C2871       C  0.75713245  0.09836562  0.36313809    -0.12300
C2872       C  0.76138545  0.11182481  0.36921831     0.18600
C2873       C  0.77582705  0.11688596  0.36711617    -0.09300
C2874       C  0.78540962  0.10905029  0.35802487    -0.02300
H2875       H  0.74616940  0.09418935  0.36514017     0.05100
C2876       C  0.75044532  0.12070271  0.37722005     0.20600
H2877       H  0.79625085  0.11347698  0.35595432     0.10300
C2878       C  0.74991067  0.12012573  0.39257282    -0.15700
C2879       C  0.74011721  0.12899652  0.40045618     0.03300
C2880       C  0.73074916  0.13879049  0.39287196    -0.11000
C2881       C  0.73101716  0.13891486  0.37744843    -0.01000
C2882       C  0.74067171  0.12992347  0.36962503    -0.06200
H2883       H  0.75735875  0.11294353  0.39845068     0.06300
H2884       H  0.72385092  0.14625112  0.37142010     0.09700
Br2885     Br  0.78275919  0.13466860  0.37603710    -0.05900
Br2886     Br  0.76027018  0.07140669  0.34765204    -0.02800
Br2887     Br  0.74093986  0.12787748  0.42148057     0.00000
Br2888     Br  0.74045602  0.13095520  0.34858309    -0.04300
C2889       C  0.92739107  0.22567651  0.28089546    -0.11700
C2890       C  0.93870557  0.23618372  0.27903220     0.03700
C2891       C  0.93768420  0.24658373  0.26779048    -0.12300
C2892       C  0.92563321  0.24672112  0.25827486     0.18600
C2893       C  0.91479162  0.23582611  0.25954299    -0.09300
C2894       C  0.91572639  0.22541837  0.27077620    -0.02300
H2895       H  0.94613204  0.25489454  0.26671853     0.05100
C2896       C  0.92399738  0.25904967  0.24794509     0.20600
H2897       H  0.90700482  0.21739658  0.27186777     0.10300
C2898       C  0.93197708  0.25914327  0.23479007    -0.15700
C2899       C  0.93120250  0.27117447  0.22523796     0.03300
C2900       C  0.92215751  0.28326649  0.22881499    -0.11000
C2901       C  0.91425470  0.28308708  0.24204819    -0.01000
C2902       C  0.91518828  0.27117796  0.25161661    -0.06200
H2903       H  0.93907593  0.24997101  0.23212222     0.06300
H2904       H  0.90740640  0.29234061  0.24506423     0.09700
Br2905     Br  0.89834122  0.23506534  0.24642175    -0.05900
Br2906     Br  0.95584936  0.23715271  0.29128227    -0.02800
Br2907     Br  0.94375608  0.27098633  0.20829939     0.00000
Br2908     Br  0.90479247  0.27226224  0.26991886    -0.04300
C2909       C  0.96830229  0.18858095  0.32341679    -0.11700
C2910       C  0.97468937  0.17455695  0.32153955     0.03700
C2911       C  0.98999895  0.17302074  0.32200657    -0.12300
C2912       C  0.99903056  0.18528795  0.32421545     0.18600
C2913       C  0.99266934  0.19924522  0.32594901    -0.09300
C2914       C  0.97745286  0.20075751  0.32575011    -0.02300
H2915       H  0.99487846  0.16225273  0.32063696     0.05100
C2916       C  0.01511357  0.18364554  0.32443022     0.20600
H2917       H  0.97277425  0.21163798  0.32690027     0.10300
C2918       C  0.02271170  0.18270430  0.31110840    -0.15700
C2919       C  0.03801847  0.18391950  0.31068562     0.03300
C2920       C  0.04594725  0.18611779  0.32388978    -0.11000
C2921       C  0.03826189  0.18613012  0.33728160    -0.01000
C2922       C  0.02299168  0.18488267  0.33762297    -0.06200
H2923       H  0.01664037  0.18178833  0.30092664     0.06300
H2924       H  0.04409034  0.18763736  0.34754619     0.09700
Br2925     Br  0.00437399  0.21668431  0.32788646    -0.05900
Br2926     Br  0.96317170  0.15711503  0.31881365    -0.02800
Br2927     Br  0.04696766  0.18370440  0.29157513     0.00000
Br2928     Br  0.01321659  0.18568915  0.35627138    -0.04300
C2929       C  0.84481419  0.10493444  0.31555649    -0.11700
C2930       C  0.85768139  0.10242020  0.32389271     0.03700
C2931       C  0.86894311  0.11292484  0.32393457    -0.12300
C2932       C  0.86768030  0.12589300  0.31573418     0.18600
C2933       C  0.85515279  0.12814114  0.30702359    -0.09300
C2934       C  0.84392584  0.11771078  0.30694564    -0.02300
H2935       H  0.87867444  0.11105562  0.33051275     0.05100
C2936       C  0.87923278  0.13724313  0.31672642     0.20600
H2937       H  0.83419862  0.11989865  0.30046072     0.10300
C2938       C  0.88900335  0.13917671  0.30500008    -0.15700
C2939       C  0.89928581  0.15061526  0.30510820     0.03300
C2940       C  0.89990507  0.16035306  0.31720632    -0.11000
C2941       C  0.89046769  0.15796215  0.32917892    -0.01000
C2942       C  0.88010023  0.14664680  0.32894246    -0.06200
H2943       H  0.88843011  0.13190325  0.29559869     0.06300
H2944       H  0.89067586  0.16533298  0.33851682     0.09700
Br2945     Br  0.85248390  0.14569133  0.29568607    -0.05900
Br2946     Br  0.86083078  0.08485904  0.33512274    -0.02800
Br2947     Br  0.91219636  0.15208299  0.28849580     0.00000
Br2948     Br  0.86660333  0.14515441  0.34504498    -0.04300
C2949       C  0.78922268  0.26286889  0.42254569    -0.11700
C2950       C  0.78956568  0.24938943  0.43030825     0.03700
C2951       C  0.77782509  0.23960598  0.42910755    -0.12300
C2952       C  0.76570642  0.24286645  0.42026857     0.18600
C2953       C  0.76499155  0.25645454  0.41302800    -0.09300
C2954       C  0.77666980  0.26635330  0.41423745    -0.02300
H2955       H  0.77835884  0.22911729  0.43471441     0.05100
C2956       C  0.75448190  0.23144663  0.41800760     0.20600
H2957       H  0.77609802  0.27662596  0.40826955     0.10300
C2958       C  0.74119335  0.23218006  0.42569720    -0.15700
C2959       C  0.73088204  0.22081083  0.42467918     0.03300
C2960       C  0.73382421  0.20848647  0.41566308    -0.11000
C2961       C  0.74708747  0.20803271  0.40776444    -0.01000
C2962       C  0.75737189  0.21932907  0.40890863    -0.06200
H2963       H  0.73904130  0.24144018  0.43286220     0.06300
H2964       H  0.74960389  0.19873513  0.40078724     0.09700
Br2965     Br  0.74872005  0.26148031  0.40065812    -0.05900
Br2966     Br  0.80589080  0.24291477  0.44198871    -0.02800
Br2967     Br  0.71371267  0.22242990  0.43679364     0.00000
Br2968     Br  0.77533124  0.21769035  0.39797742    -0.04300
C2969       C  0.82334888  0.32875996  0.39675863    -0.11700
C2970       C  0.81294149  0.33993059  0.39950775     0.03700
C2971       C  0.81187787  0.35190880  0.38991217    -0.12300
C2972       C  0.82100469  0.35288622  0.37755799     0.18600
C2973       C  0.83157968  0.34193646  0.37500571    -0.09300
C2974       C  0.83274218  0.33006016  0.38460805    -0.02300
H2975       H  0.80376266  0.36037137  0.39195148     0.05100
C2976       C  0.81895406  0.36485322  0.36685593     0.20600
H2977       H  0.84071769  0.32154100  0.38226645     0.10300
C2978       C  0.82867580  0.37676862  0.36682762    -0.15700
C2979       C  0.82843207  0.38711211  0.35544970     0.03300
C2980       C  0.81842499  0.38539717  0.34366376    -0.11000
C2981       C  0.80816692  0.37385682  0.34427258    -0.01000
C2982       C  0.80834735  0.36368108  0.35573711    -0.06200
H2983       H  0.83676246  0.37778194  0.37549264     0.06300
H2984       H  0.80024257  0.37239498  0.33552829     0.09700
Br2985     Br  0.84418172  0.34241201  0.35811687    -0.05900
Br2986     Br  0.80021112  0.33966044  0.41631201    -0.02800
Br2987     Br  0.84209233  0.40312068  0.35686552     0.00000
Br2988     Br  0.79446012  0.34783730  0.35532738    -0.04300
C2989       C  0.90006067  0.22560343  0.34472024    -0.11700
C2990       C  0.89221056  0.23791446  0.33941113     0.03700
C2991       C  0.88341020  0.24610982  0.34900972    -0.12300
C2992       C  0.88235317  0.24233079  0.36388237     0.18600
C2993       C  0.89039359  0.23029695  0.36924180    -0.09300
C2994       C  0.89922118  0.22211540  0.35971313    -0.02300
H2995       H  0.87735077  0.25547074  0.34486499     0.05100
C2996       C  0.87249437  0.25077193  0.37360878     0.20600
H2997       H  0.90515106  0.21274103  0.36398892     0.10300
C2998       C  0.85756813  0.24716004  0.37404098    -0.15700
C2999       C  0.84793602  0.25449746  0.38350422     0.03300
C3000       C  0.85325275  0.26582109  0.39275942    -0.11000
C3001       C  0.86827820  0.26939038  0.39223744    -0.01000
C3002       C  0.87785178  0.26200856  0.38272854    -0.06200
H3003       H  0.85343372  0.23840951  0.36711144     0.06300
H3004       H  0.87259310  0.27807343  0.39912526     0.09700
Br3005     Br  0.88927046  0.22439303  0.38941809    -0.05900
Br3006     Br  0.89352343  0.24454990  0.31942721    -0.02800
Br3007     Br  0.82790290  0.24786659  0.38360242     0.00000
Br3008     Br  0.89814319  0.26763662  0.38238177    -0.04300
C3009       C  0.09388105  0.64778820  0.77805738    -0.11700
C3010       C  0.10937223  0.64674001  0.77843653     0.03700
C3011       C  0.11673438  0.63849130  0.76781014    -0.12300
C3012       C  0.10905692  0.63119904  0.75665539     0.18600
C3013       C  0.09362191  0.63170866  0.75654459    -0.09300
C3014       C  0.08615958  0.63992749  0.76721707    -0.02300
H3015       H  0.12861566  0.63788523  0.76813485     0.05100
C3016       C  0.11761799  0.62335671  0.74527336     0.20600
H3017       H  0.07428340  0.64051869  0.76675253     0.10300
C3018       C  0.11807144  0.60796373  0.74531769    -0.15700
C3019       C  0.12799358  0.60033984  0.73634564     0.03300
C3020       C  0.13777447  0.60820256  0.72721625    -0.11000
C3021       C  0.13679132  0.62358710  0.72671853    -0.01000
C3022       C  0.12674737  0.63115077  0.73553491    -0.06200
H3023       H  0.11117041  0.60188764  0.75287387     0.06300
H3024       H  0.14408727  0.62978699  0.71965858     0.09700
Br3025     Br  0.08237721  0.62202708  0.74161457    -0.05900
Br3026     Br  0.12131812  0.65595537  0.79319967    -0.02800
Br3027     Br  0.12873013  0.57936135  0.73830814     0.00000
Br3028     Br  0.12601998  0.65217707  0.73414630    -0.04300
C3029       C  0.08028684  0.76892998  0.72656560    -0.11700
C3030       C  0.07592311  0.77282508  0.74094292     0.03700
C3031       C  0.07465197  0.76192464  0.75174981    -0.12300
C3032       C  0.07755811  0.74714545  0.74844815     0.18600
C3033       C  0.08189329  0.74331113  0.73411809    -0.09300
C3034       C  0.08327990  0.75414179  0.72340115    -0.02300
H3035       H  0.07103415  0.76492403  0.76268062     0.05100
C3036       C  0.07531912  0.73566101  0.75972279     0.20600
H3037       H  0.08668782  0.75092723  0.71246620     0.10300
C3038       C  0.06424851  0.72521414  0.75753091    -0.15700
C3039       C  0.06268317  0.71320121  0.76694366     0.03300
C3040       C  0.07212920  0.71165442  0.77918121    -0.11000
C3041       C  0.08281032  0.72255781  0.78171202    -0.01000
C3042       C  0.08451798  0.73442834  0.77206303    -0.06200
H3043       H  0.05702927  0.72619903  0.74813032     0.06300
H3044       H  0.09020484  0.72161733  0.79098050     0.09700
Br3045     Br  0.08607348  0.72340196  0.72855038    -0.05900
Br3046     Br  0.07045187  0.79248604  0.74625477    -0.02800
Br3047     Br  0.04741280  0.69946919  0.76216904     0.00000
Br3048     Br  0.10009201  0.74817297  0.77565735    -0.04300
C3049       C  0.17474098  0.69517624  0.54342150    -0.11700
C3050       C  0.16718598  0.70465472  0.53367570     0.03700
C3051       C  0.16743471  0.70188427  0.51855606    -0.12300
C3052       C  0.17505478  0.68981656  0.51280692     0.18600
C3053       C  0.18223231  0.68014881  0.52246061    -0.09300
C3054       C  0.18205194  0.68286899  0.53759464    -0.02300
H3055       H  0.16204565  0.70948894  0.51115862     0.05100
C3056       C  0.17661258  0.68846173  0.49667598     0.20600
H3057       H  0.18781805  0.67538675  0.54482011     0.10300
C3058       C  0.19012780  0.69204407  0.49026037    -0.15700
C3059       C  0.19176633  0.69249054  0.47500578     0.03300
C3060       C  0.17966200  0.68941052  0.46582263    -0.11000
C3061       C  0.16618251  0.68553287  0.47225790    -0.01000
C3062       C  0.16464069  0.68489606  0.48757200    -0.06200
H3063       H  0.19934273  0.69499184  0.49718744     0.06300
H3064       H  0.15680122  0.68307406  0.46535186     0.09700
Br3065     Br  0.19239425  0.66310767  0.51540025    -0.05900
Br3066     Br  0.15716065  0.72215407  0.53989986    -0.02800
Br3067     Br  0.21041775  0.69883706  0.46747435     0.00000
Br3068     Br  0.14611907  0.67896999  0.49564881    -0.04300
C3069       C  0.17836547  0.66661504  0.61290419    -0.11700
C3070       C  0.16540843  0.66174725  0.62000941     0.03700
C3071       C  0.16603803  0.65008552  0.62999224    -0.12300
C3072       C  0.17931529  0.64300176  0.63310919     0.18600
C3073       C  0.19205494  0.64716289  0.62540422    -0.09300
C3074       C  0.19153762  0.65896077  0.61552864    -0.02300
H3075       H  0.15616212  0.64686416  0.63580212     0.05100
C3076       C  0.17965426  0.63211319  0.64520161     0.20600
H3077       H  0.20153893  0.66225743  0.61000181     0.10300
C3078       C  0.17202094  0.61880699  0.64372033    -0.15700
C3079       C  0.17079754  0.60899519  0.65553240     0.03300
C3080       C  0.17733259  0.61247381  0.66918565    -0.11000
C3081       C  0.18519684  0.62569917  0.67048793    -0.01000
C3082       C  0.18624037  0.63553389  0.65875862    -0.06200
H3083       H  0.16678555  0.61615871  0.63337325     0.06300
H3084       H  0.19014396  0.62870623  0.68087801     0.09700
Br3085     Br  0.21033870  0.63702769  0.62802590    -0.05900
Br3086     Br  0.14660119  0.67096811  0.61756677    -0.02800
Br3087     Br  0.16022085  0.59107047  0.65213621     0.00000
Br3088     Br  0.19576530  0.65402882  0.66221587    -0.04300
C3089       C  0.15000100  0.73013068  0.61231372    -0.11700
C3090       C  0.13464395  0.72785933  0.61288060     0.03700
C3091       C  0.12591914  0.73675476  0.62194783    -0.12300
C3092       C  0.13221483  0.74792593  0.63048963     0.18600
C3093       C  0.14744147  0.75035253  0.62970804    -0.09300
C3094       C  0.15614884  0.74152752  0.62069918    -0.02300
H3095       H  0.11422107  0.73470267  0.62264754     0.05100
C3096       C  0.12302963  0.75626850  0.64097788     0.20600
H3097       H  0.16785955  0.74357508  0.62031945     0.10300
C3098       C  0.12465990  0.75352451  0.65601888    -0.15700
C3099       C  0.11670193  0.76150939  0.66643541     0.03300
C3100       C  0.10701436  0.77274400  0.66183620    -0.11000
C3101       C  0.10508062  0.77516123  0.64670699    -0.01000
C3102       C  0.11291486  0.76696270  0.63630443    -0.06200
H3103       H  0.13217215  0.74504711  0.65966822     0.06300
H3104       H  0.09757576  0.78358211  0.64293491     0.09700
Br3105     Br  0.15689322  0.76559021  0.64078093    -0.05900
Br3106     Br  0.12500860  0.71224451  0.60250021    -0.02800
Br3107     Br  0.11903156  0.75579069  0.68660960     0.00000
Br3108     Br  0.10968743  0.77092125  0.61588263    -0.04300
C3109       C  0.19119003  0.67594227  0.95678764    -0.11700
C3110       C  0.19011226  0.68880916  0.96545034     0.03700
C3111       C  0.18988319  0.68767076  0.98074562    -0.12300
C3112       C  0.19051360  0.67394869  0.98764847     0.18600
C3113       C  0.19041759  0.66110959  0.97908638    -0.09300
C3114       C  0.19092996  0.66217491  0.96379445    -0.02300
H3115       H  0.18966098  0.69758521  0.98732725     0.05100
C3116       C  0.19175187  0.67339659  0.00377544     0.20600
H3117       H  0.19137836  0.65216245  0.95737437     0.10300
C3118       C  0.17993073  0.67816780  0.01237824    -0.15700
C3119       C  0.18102021  0.67864952  0.02768393     0.03300
C3120       C  0.19431124  0.67461392  0.03458655    -0.11000
C3121       C  0.20601194  0.66952580  0.02590707    -0.01000
C3122       C  0.20485404  0.66892949  0.01064215    -0.06200
H3123       H  0.16978568  0.68150194  0.00713404     0.06300
H3124       H  0.21630660  0.66639661  0.03096786     0.09700
Br3125     Br  0.18953653  0.64195143  0.98783689    -0.05900
Br3126     Br  0.18974513  0.70833513  0.95744068    -0.02800
Br3127     Br  0.16374125  0.68421838  0.03839320     0.00000
Br3128     Br  0.22176466  0.66269555  0.99967594    -0.04300
C3129       C  0.09856329  0.67349091  0.84316598    -0.11700
C3130       C  0.10812360  0.66141622  0.84534023     0.03700
C3131       C  0.11956091  0.66241884  0.85556501    -0.12300
C3132       C  0.12167248  0.67514750  0.86398142     0.18600
C3133       C  0.11176047  0.68692087  0.86233387    -0.09300
C3134       C  0.10043052  0.68605258  0.85196465    -0.02300
H3135       H  0.12720035  0.65335552  0.85659014     0.05100
C3136       C  0.13497972  0.67635471  0.87337265     0.20600
H3137       H  0.09318679  0.69539006  0.85060821     0.10300
C3138       C  0.14526938  0.68742934  0.87038095    -0.15700
C3139       C  0.15831497  0.68860794  0.87841347     0.03300
C3140       C  0.16161118  0.67813730  0.88941612    -0.11000
C3141       C  0.15119211  0.66713836  0.89248727    -0.01000
C3142       C  0.13796366  0.66626228  0.88470667    -0.06200
H3143       H  0.14314004  0.69524087  0.86166262     0.06300
H3144       H  0.15330397  0.65912650  0.90101760     0.09700
Br3145     Br  0.11318413  0.70440799  0.87403017    -0.05900
Br3146     Br  0.10711260  0.64360174  0.83407430    -0.02800
Br3147     Br  0.17069610  0.70508758  0.87389481     0.00000
Br3148     Br  0.12412753  0.65141609  0.89038381    -0.04300
C3149       C  0.26840513  0.58635891  0.78532444    -0.11700
C3150       C  0.26018376  0.59943146  0.78329266     0.03700
C3151       C  0.24873885  0.59971827  0.77304337    -0.12300
C3152       C  0.24519291  0.58720739  0.76484527     0.18600
C3153       C  0.25338794  0.57429369  0.76670927    -0.09300
C3154       C  0.26493811  0.57398513  0.77676005    -0.02300
H3155       H  0.24240849  0.60968897  0.77160248     0.05100
C3156       C  0.23267622  0.58768485  0.75463051     0.20600
H3157       H  0.27092908  0.56381528  0.77818565     0.10300
C3158       C  0.23523239  0.59021442  0.73968590    -0.15700
C3159       C  0.22358609  0.59057339  0.72967667     0.03300
C3160       C  0.20907492  0.58813964  0.73463773    -0.11000
C3161       C  0.20660897  0.58578655  0.74969302    -0.01000
C3162       C  0.21825026  0.58559676  0.75966302    -0.06200
H3163       H  0.24634055  0.59204777  0.73582857     0.06300
H3164       H  0.19557160  0.58395813  0.75374591     0.09700
Br3165     Br  0.24869836  0.55658841  0.75631101    -0.05900
Br3166     Br  0.26364858  0.61727149  0.79403247    -0.02800
Br3167     Br  0.22824184  0.59538261  0.70968888     0.00000
Br3168     Br  0.21400286  0.58231944  0.78003542    -0.04300
C3169       C  0.27172042  0.59776149  0.85152283    -0.11700
C3170       C  0.25653521  0.59432638  0.85221082     0.03700
C3171       C  0.24724608  0.60247308  0.86134545    -0.12300
C3172       C  0.25269892  0.61408536  0.86977865     0.18600
C3173       C  0.26781302  0.61714039  0.86965115    -0.09300
C3174       C  0.27718999  0.60899097  0.86062226    -0.02300
H3175       H  0.23556297  0.60019662  0.86134929     0.05100
C3176       C  0.24231360  0.62407333  0.87715055     0.20600
H3177       H  0.28873068  0.61183440  0.86034180     0.10300
C3178       C  0.23854449  0.62182501  0.89187582    -0.15700
C3179       C  0.22940048  0.63176766  0.89925721     0.03300
C3180       C  0.22415623  0.64443119  0.89186137    -0.11000
C3181       C  0.22760207  0.64624531  0.87692323    -0.01000
C3182       C  0.23647638  0.63615417  0.86956340    -0.06200
H3183       H  0.24282342  0.61235200  0.89766357     0.06300
H3184       H  0.22355614  0.65567979  0.87092085     0.09700
Br3185     Br  0.27588266  0.63299814  0.88094496    -0.05900
Br3186     Br  0.24726034  0.57958468  0.84028750    -0.02800
Br3187     Br  0.22446498  0.62707417  0.91922489     0.00000
Br3188     Br  0.24058687  0.63939110  0.84914968    -0.04300
C3189       C  0.16548748  0.89067966  0.68836012    -0.11700
C3190       C  0.15567267  0.88962347  0.70036613     0.03700
C3191       C  0.14486845  0.87869392  0.70044767    -0.12300
C3192       C  0.14375151  0.86860797  0.68888832     0.18600
C3193       C  0.15345919  0.86959983  0.67695627    -0.09300
C3194       C  0.16411068  0.88062745  0.67670387    -0.02300
H3195       H  0.13740274  0.87791169  0.70968177     0.05100
C3196       C  0.13272203  0.85679665  0.68971885     0.20600
H3197       H  0.17164118  0.88104324  0.66750231     0.10300
C3198       C  0.11999778  0.85766799  0.68113193    -0.15700
C3199       C  0.10939122  0.84655094  0.68162575     0.03300
C3200       C  0.11146220  0.83432126  0.69098551    -0.11000
C3201       C  0.12421951  0.83362804  0.69964298    -0.01000
C3202       C  0.13484221  0.84465208  0.69897223    -0.06200
H3203       H  0.11834283  0.86704073  0.67399514     0.06300
H3204       H  0.12616334  0.82426551  0.70672146     0.09700
Br3205     Br  0.15308922  0.85561866  0.66119193    -0.05900
Br3206     Br  0.15619974  0.90261476  0.71696879    -0.02800
Br3207     Br  0.09231986  0.84907008  0.66951200     0.00000
Br3208     Br  0.15243230  0.84233290  0.71032301    -0.04300
C3209       C  0.21383689  0.73444086  0.58591252    -0.11700
C3210       C  0.22866984  0.73051667  0.58826513     0.03700
C3211       C  0.23959006  0.74133150  0.58800212    -0.12300
C3212       C  0.23608844  0.75611044  0.58547223     0.18600
C3213       C  0.22136986  0.76002467  0.58284657    -0.09300
C3214       C  0.21043653  0.74924102  0.58307365    -0.02300
H3215       H  0.25093100  0.73818968  0.58973981     0.05100
C3216       C  0.24793880  0.76724149  0.58558474     0.20600
H3217       H  0.19915351  0.75252308  0.58125146     0.10300
C3218       C  0.25107541  0.77514734  0.57272884    -0.15700
C3219       C  0.26187463  0.78608429  0.57262405     0.03300
C3220       C  0.26997424  0.78899177  0.58551328    -0.11000
C3221       C  0.26717969  0.78071029  0.59818087    -0.01000
C3222       C  0.25617577  0.77004857  0.59836850    -0.06200
H3223       H  0.24499420  0.77287115  0.56276590     0.06300
H3224       H  0.27323029  0.78291441  0.60819150     0.09700
Br3225     Br  0.21553354  0.78000740  0.57945199    -0.05900
Br3226     Br  0.23499603  0.71062710  0.59116853    -0.02800
Br3227     Br  0.26536107  0.79622751  0.55446403     0.00000
Br3228     Br  0.25226109  0.76035015  0.61665291    -0.04300
C3229       C  0.31014064  0.82376600  0.54492184    -0.11700
C3230       C  0.31305726  0.81075089  0.53692221     0.03700
C3231       C  0.31320888  0.81109304  0.52154293    -0.12300
C3232       C  0.31077141  0.82422223  0.51385950     0.18600
C3233       C  0.30848703  0.83727969  0.52184441    -0.09300
C3234       C  0.30811296  0.83693866  0.53717113    -0.02300
H3235       H  0.31479708  0.80094878  0.51552259     0.05100
C3236       C  0.30947757  0.82390910  0.49762118     0.20600
H3237       H  0.30597832  0.84706008  0.54306591     0.10300
C3238       C  0.29616232  0.82814992  0.49117753    -0.15700
C3239       C  0.29433315  0.82814253  0.47595008     0.03300
C3240       C  0.30591211  0.82335528  0.46675337    -0.11000
C3241       C  0.31923802  0.81903065  0.47324434    -0.01000
C3242       C  0.32109949  0.81930512  0.48850748    -0.06200
H3243       H  0.28711202  0.83162564  0.49808968     0.06300
H3244       H  0.32826504  0.81534162  0.46643549     0.09700
Br3245     Br  0.30583837  0.85592900  0.51238650    -0.05900
Br3246     Br  0.31587392  0.79193746  0.54603432    -0.02800
Br3247     Br  0.27590945  0.83545612  0.46870321     0.00000
Br3248     Br  0.33986456  0.81376251  0.49629878    -0.04300
C3249       C  0.27481619  0.85228585  0.61308533    -0.11700
C3250       C  0.27596357  0.86774733  0.61180903     0.03700
C3251       C  0.26712627  0.87683420  0.62053722    -0.12300
C3252       C  0.25709423  0.87084153  0.63052508     0.18600
C3253       C  0.25579168  0.85551433  0.63171553    -0.09300
C3254       C  0.26465476  0.84640754  0.62313640    -0.02300
H3255       H  0.26812951  0.88866006  0.61959119     0.05100
C3256       C  0.24804229  0.88067988  0.63967206     0.20600
H3257       H  0.26345276  0.83462868  0.62426735     0.10300
C3258       C  0.23515632  0.88670490  0.63383779    -0.15700
C3259       C  0.22579427  0.89525628  0.64255091     0.03300
C3260       C  0.22923500  0.89764670  0.65752023    -0.11000
C3261       C  0.24245534  0.89196098  0.66310849    -0.01000
C3262       C  0.25188352  0.88369584  0.65429497    -0.06200
H3263       H  0.23225893  0.88453406  0.62250465     0.06300
H3264       H  0.24550139  0.89389907  0.67444720     0.09700
Br3265     Br  0.24181846  0.84653707  0.64469097    -0.05900
Br3266     Br  0.28942912  0.87733165  0.59872430    -0.02800
Br3267     Br  0.20841339  0.90280417  0.63330957     0.00000
Br3268     Br  0.26994486  0.87682657  0.66265062    -0.04300
C3269       C  0.28353260  0.92042231  0.77740706    -0.11700
C3270       C  0.28433346  0.92695486  0.76332972     0.03700
C3271       C  0.27195585  0.92718462  0.75433076    -0.12300
C3272       C  0.25863234  0.92106909  0.75894397     0.18600
C3273       C  0.25772291  0.91456608  0.77292899    -0.09300
C3274       C  0.27006927  0.91442425  0.78207594    -0.02300
H3275       H  0.27280288  0.93195023  0.74345954     0.05100
C3276       C  0.24632771  0.92072479  0.74838640     0.20600
H3277       H  0.26919449  0.90928245  0.79276614     0.10300
C3278       C  0.24175638  0.90715305  0.74276155    -0.15700
C3279       C  0.23190355  0.90638753  0.73103461     0.03300
C3280       C  0.22647782  0.91946193  0.72466572    -0.11000
C3281       C  0.23075474  0.93304020  0.73061016    -0.01000
C3282       C  0.24053971  0.93375266  0.74239896    -0.06200
H3283       H  0.24642394  0.89708993  0.74707939     0.06300
H3284       H  0.22662246  0.94317392  0.72594753     0.09700
Br3285     Br  0.23995352  0.90568259  0.77996758    -0.05900
Br3286     Br  0.30178478  0.93571703  0.75533139    -0.02800
Br3287     Br  0.22757249  0.88716482  0.72348184     0.00000
Br3288     Br  0.24582835  0.95276588  0.74983421    -0.04300
C3289       C  0.39064024  0.82035056  0.67245552    -0.11700
C3290       C  0.37581926  0.82396549  0.67527122     0.03700
C3291       C  0.36575663  0.82444746  0.66371769    -0.12300
C3292       C  0.37013677  0.82121264  0.64934567     0.18600
C3293       C  0.38491639  0.81776553  0.64646038    -0.09300
C3294       C  0.39508993  0.81748745  0.65797879    -0.02300
H3295       H  0.35441399  0.82726374  0.66595890     0.05100
C3296       C  0.35902926  0.82146744  0.63757382     0.20600
H3297       H  0.40642719  0.81473822  0.65566636     0.10300
C3298       C  0.35398824  0.83499876  0.63231080    -0.15700
C3299       C  0.34289025  0.83569984  0.62170995     0.03300
C3300       C  0.33656084  0.82256976  0.61624578    -0.11000
C3301       C  0.34179429  0.80903286  0.62154075    -0.01000
C3302       C  0.35289042  0.80841122  0.63211271    -0.06200
H3303       H  0.35860038  0.84508325  0.63663369     0.06300
H3304       H  0.33708580  0.79883453  0.61761502     0.09700
Br3305     Br  0.39157128  0.81334264  0.62697535    -0.05900
Br3306     Br  0.36875117  0.82906379  0.69450370    -0.02800
Br3307     Br  0.33659054  0.85499055  0.61593741     0.00000
Br3308     Br  0.35890701  0.78952443  0.63926126    -0.04300
C3309       C  0.39684891  0.84846524  0.73343978    -0.11700
C3310       C  0.39766894  0.86396612  0.73280282     0.03700
C3311       C  0.38848157  0.87247801  0.74178411    -0.12300
C3312       C  0.37836136  0.86583427  0.75132809     0.18600
C3313       C  0.37747336  0.85043471  0.75185851    -0.09300
C3314       C  0.38669695  0.84195029  0.74307746    -0.02300
H3315       H  0.38914069  0.88434514  0.74124797     0.05100
C3316       C  0.36847105  0.87503361  0.76035396     0.20600
H3317       H  0.38573179  0.83010864  0.74368934     0.10300
C3318       C  0.35344955  0.87524159  0.75707926    -0.15700
C3319       C  0.34359334  0.88330182  0.76565757     0.03300
C3320       C  0.34875731  0.89138075  0.77788730    -0.11000
C3321       C  0.36389539  0.89142521  0.78091666    -0.01000
C3322       C  0.37372063  0.88331212  0.77229799    -0.06200
H3323       H  0.34937227  0.86905550  0.74776801     0.06300
H3324       H  0.36809316  0.89757809  0.79018956     0.09700
Br3325     Br  0.36395029  0.84037900  0.76451607    -0.05900
Br3326     Br  0.41109720  0.87425094  0.72022508    -0.02800
Br3327     Br  0.32341999  0.88328690  0.75948249     0.00000
Br3328     Br  0.39410224  0.88335629  0.77759820    -0.04300
C3329       C  0.28550703  0.76836172  0.91586414    -0.11700
C3330       C  0.27764472  0.76542962  0.90276074     0.03700
C3331       C  0.26633131  0.75497412  0.90280297    -0.12300
C3332       C  0.26263380  0.74736179  0.91565622     0.18600
C3333       C  0.27008429  0.75058638  0.92875211    -0.09300
C3334       C  0.28134007  0.76099564  0.92879089    -0.02300
H3335       H  0.26061871  0.75249090  0.89266842     0.05100
C3336       C  0.25174211  0.73534659  0.91501255     0.20600
H3337       H  0.28709988  0.76304665  0.93898786     0.10300
C3338       C  0.25665698  0.72101524  0.91238009    -0.15700
C3339       C  0.24679515  0.70924138  0.91181904     0.03300
C3340       C  0.23158905  0.71176590  0.91378249    -0.11000
C3341       C  0.22672307  0.72620491  0.91636852    -0.01000
C3342       C  0.23667646  0.73791759  0.91712833    -0.06200
H3343       H  0.26826915  0.71898770  0.91075935     0.06300
H3344       H  0.21514845  0.72837313  0.91805633     0.09700
Br3345     Br  0.26554192  0.74070473  0.94677580    -0.05900
Br3346     Br  0.28201103  0.77463547  0.88429003    -0.02800
Br3347     Br  0.25489391  0.69019212  0.90772057     0.00000
Br3348     Br  0.22934607  0.75717883  0.92144789    -0.04300
C3349       C  0.32958768  0.80068936  0.96216301    -0.11700
C3350       C  0.32923316  0.81454216  0.96920493     0.03700
C3351       C  0.33086094  0.81538578  0.98449920    -0.12300
C3352       C  0.33225670  0.80263154  0.99304562     0.18600
C3353       C  0.33155289  0.78883283  0.98611034    -0.09300
C3354       C  0.33070381  0.78798786  0.97084738    -0.02300
H3355       H  0.33079669  0.82604404  0.98979552     0.05100
C3356       C  0.33310381  0.80381613  0.00924075     0.20600
H3357       H  0.33029747  0.77722060  0.96578209     0.10300
C3358       C  0.32124840  0.81000274  0.01683906    -0.15700
C3359       C  0.32062101  0.80960459  0.03216146     0.03300
C3360       C  0.33202239  0.80278001  0.04018135    -0.11000
C3361       C  0.34446662  0.79770477  0.03259279    -0.01000
C3362       C  0.34510183  0.79821135  0.01725304    -0.06200
H3363       H  0.31215372  0.81470156  0.01078288     0.06300
H3364       H  0.35348592  0.79273339  0.03854292     0.09700
Br3365     Br  0.33016572  0.77080163  0.99697105    -0.05900
Br3366     Br  0.32635020  0.83266480  0.95883733    -0.02800
Br3367     Br  0.30381941  0.81854066  0.04128080     0.00000
Br3368     Br  0.36245711  0.79088441  0.00777633    -0.04300
C3369       C  0.32327941  0.83148290  0.89320877    -0.11700
C3370       C  0.31417201  0.84358418  0.89655079     0.03700
C3371       C  0.31315076  0.85534394  0.88669611    -0.12300
C3372       C  0.32117961  0.85526597  0.87357903     0.18600
C3373       C  0.33072454  0.84352490  0.87053212    -0.09300
C3374       C  0.33174879  0.83177704  0.88033290    -0.02300
H3375       H  0.30601760  0.86453289  0.88921792     0.05100
C3376       C  0.31943209  0.86734286  0.86297232     0.20600
H3377       H  0.33885634  0.82261991  0.87764140     0.10300
C3378       C  0.32875706  0.87953369  0.86382335    -0.15700
C3379       C  0.32868066  0.89028640  0.85284328     0.03300
C3380       C  0.31903198  0.88888425  0.84074669    -0.11000
C3381       C  0.30921493  0.87695478  0.84038949    -0.01000
C3382       C  0.30941912  0.86620652  0.85130832    -0.06200
H3383       H  0.33644516  0.88044346  0.87285506     0.06300
H3384       H  0.30167545  0.87564019  0.83128484     0.09700
Br3385     Br  0.34227895  0.84298905  0.85291305    -0.05900
Br3386     Br  0.30352676  0.84500241  0.91468642    -0.02800
Br3387     Br  0.34210897  0.90637728  0.85515140     0.00000
Br3388     Br  0.29635963  0.84976719  0.84947003    -0.04300
C3389       C  0.41969891  0.72096589  0.78028415    -0.11700
C3390       C  0.43224436  0.72236419  0.77122981     0.03700
C3391       C  0.43243215  0.73289056  0.76003198    -0.12300
C3392       C  0.42040302  0.74220749  0.75776349     0.18600
C3393       C  0.40768682  0.74042039  0.76632527    -0.09300
C3394       C  0.40740581  0.72985292  0.77741614    -0.02300
H3395       H  0.44227222  0.73429842  0.75349402     0.05100
C3396       C  0.42179100  0.75469051  0.74754023     0.20600
H3397       H  0.39765819  0.72894948  0.78417529     0.10300
C3398       C  0.41360047  0.75486881  0.73452201     0.13100
C3399       C  0.41357096  0.76725464  0.72541583     0.03300
C3400       C  0.42191454  0.77975147  0.72937315    -0.11000
C3401       C  0.43048441  0.77926500  0.74218709    -0.01000
C3402       C  0.43048348  0.76690848  0.75122636    -0.06200
H3403       H  0.40685171  0.74548262  0.73167877     0.06300
H3404       H  0.43701240  0.78867566  0.74539591     0.09700
Br3405     Br  0.39087752  0.75294935  0.76410090    -0.05900
Br3406     Br  0.44999452  0.71143104  0.77431600    -0.02800
Br3407     Br  0.40107747  0.76661052  0.70844841     0.00000
Br3408     Br  0.44183806  0.76761637  0.76897157    -0.04300
C3409       C  0.33724493  0.60400792  0.81250249    -0.11700
C3410       C  0.35076199  0.60070702  0.81940700     0.03700
C3411       C  0.36234114  0.61083685  0.81883323    -0.12300
C3412       C  0.36070717  0.62437339  0.81166232     0.18600
C3413       C  0.34747212  0.62743186  0.80431428    -0.09300
C3414       C  0.33600555  0.61723006  0.80461467    -0.02300
H3415       H  0.37255682  0.60833446  0.82438873     0.05100
C3416       C  0.37250357  0.63554496  0.81270452     0.20600
H3417       H  0.32576264  0.62005931  0.79927567     0.10300
C3418       C  0.37999947  0.64000369  0.80000702    -0.15700
C3419       C  0.39033246  0.65141389  0.80048614     0.03300
C3420       C  0.39352573  0.65841136  0.81399974    -0.11000
C3421       C  0.38638105  0.65346450  0.82675945    -0.01000
C3422       C  0.37584703  0.64232542  0.82617927    -0.06200
H3423       H  0.37752981  0.63479509  0.78959786     0.06300
H3424       H  0.38850078  0.65872575  0.83721501     0.09700
Br3425     Br  0.34396463  0.64597876  0.79493244    -0.05900
Br3426     Br  0.35423175  0.58275354  0.82989502    -0.02800
Br3427     Br  0.39948424  0.65678565  0.78226866     0.00000
Br3428     Br  0.36543008  0.63768113  0.84390430    -0.04300
C3429       C  0.39715222  0.72031071  0.85030830    -0.11700
C3430       C  0.39616348  0.71622985  0.86526986     0.03700
C3431       C  0.38801211  0.72488420  0.87507341    -0.12300
C3432       C  0.38075871  0.73756113  0.87024694     0.18600
C3433       C  0.38180936  0.74170928  0.85542682    -0.09300
C3434       C  0.38990347  0.73312054  0.84562498    -0.02300
H3435       H  0.38708097  0.72156143  0.88645642     0.05100
C3436       C  0.37153087  0.74605384  0.88053835     0.20600
H3437       H  0.39049973  0.73650567  0.83423942     0.10300
C3438       C  0.37769454  0.75766163  0.88854211    -0.15700
C3439       C  0.36886167  0.76694482  0.89709670     0.03300
C3440       C  0.35346612  0.76477169  0.89748430    -0.11000
C3441       C  0.34752445  0.75263688  0.88995820    -0.01000
C3442       C  0.35640321  0.74330870  0.88162426    -0.06200
H3443       H  0.38938904  0.75971877  0.88783632     0.06300
H3444       H  0.33583270  0.75049710  0.89030617     0.09700
Br3445     Br  0.37215720  0.75894064  0.84807157    -0.05900
Br3446     Br  0.40479787  0.69860024  0.87291456    -0.02800
Br3447     Br  0.37861300  0.78250632  0.90745110     0.00000
Br3448     Br  0.34736819  0.72717227  0.87151796    -0.04300
C3449       C  0.94905764  0.66961256  0.81614113    -0.11700
C3450       C  0.95649365  0.67364491  0.82913691     0.03700
C3451       C  0.97169415  0.67160190  0.83021569    -0.12300
C3452       C  0.97980339  0.66586113  0.81843183     0.18600
C3453       C  0.97228142  0.66102005  0.80580850    -0.09300
C3454       C  0.95704606  0.66281867  0.80480951    -0.02300
H3455       H  0.97734333  0.67513916  0.84006742     0.05100
C3456       C  0.99607858  0.66675340  0.81878403     0.20600
H3457       H  0.95152857  0.65951190  0.79479982     0.10300
C3458       C  0.00468244  0.65395626  0.81865786    -0.15700
C3459       C  0.02007810  0.65475255  0.81786789     0.03300
C3460       C  0.02710998  0.66863145  0.81714767    -0.11000
C3461       C  0.01839631  0.68134026  0.81794685    -0.01000
C3462       C  0.00311976  0.68051471  0.81871674    -0.06200
H3463       H  0.99937750  0.64330603  0.81894658     0.06300
H3464       H  0.02343454  0.69209977  0.81744966     0.09700
Br3465     Br  0.98239667  0.65301882  0.78913854    -0.05900
Br3466     Br  0.94662209  0.68192736  0.84581774    -0.02800
Br3467     Br  0.03062693  0.63648930  0.81783380     0.00000
Br3468     Br  0.99236436  0.69865424  0.81865856    -0.04300
C3469       C  0.83672123  0.60673680  0.73521472    -0.11700
C3470       C  0.82956117  0.61337579  0.74729087     0.03700
C3471       C  0.83775039  0.62108189  0.75775380    -0.12300
C3472       C  0.85298114  0.62274817  0.75623654     0.18600
C3473       C  0.86011586  0.61614356  0.74418544    -0.09300
C3474       C  0.85201475  0.60802666  0.73395378    -0.02300
H3475       H  0.83217314  0.62600018  0.76704360     0.05100
C3476       C  0.86114715  0.63184802  0.76699488     0.20600
H3477       H  0.85764650  0.60307687  0.72470968     0.10300
C3478       C  0.87201510  0.62540312  0.77582318    -0.15700
C3479       C  0.88051726  0.63392600  0.78543795     0.03300
C3480       C  0.87824040  0.64928318  0.78622534    -0.11000
C3481       C  0.86688259  0.65551025  0.77784015    -0.01000
C3482       C  0.85835693  0.64698763  0.76838321    -0.06200
H3483       H  0.87396368  0.61368428  0.77513022     0.06300
H3484       H  0.86480342  0.66721286  0.77831871     0.09700
Br3485     Br  0.88071858  0.61871479  0.74063580    -0.05900
Br3486     Br  0.80874580  0.61194745  0.75049357    -0.02800
Br3487     Br  0.89467315  0.62377296  0.79730267     0.00000
Br3488     Br  0.84350780  0.65681720  0.75711898    -0.04300
C3489       C  0.80327729  0.67897087  0.97603017    -0.11700
C3490       C  0.79319193  0.67365617  0.98662122     0.03700
C3491       C  0.79687371  0.67397574  0.00152582    -0.12300
C3492       C  0.81039331  0.67956601  0.00623122     0.18600
C3493       C  0.82060234  0.68451039  0.99579229    -0.09300
C3494       C  0.81699770  0.68424163  0.98085435    -0.02300
H3495       H  0.78898364  0.67012378  0.00957201     0.05100
C3496       C  0.81333703  0.68045294  0.02214597     0.20600
H3497       H  0.82495272  0.68827702  0.97300178     0.10300
C3498       C  0.81669149  0.66758263  0.02987088    -0.15700
C3499       C  0.81756760  0.66764886  0.04520121     0.03300
C3500       C  0.81504253  0.68078718  0.05301914    -0.11000
C3501       C  0.81265952  0.69385677  0.04519257    -0.01000
C3502       C  0.81156074  0.69372645  0.02987673    -0.06200
H3503       H  0.81817696  0.65735359  0.02396553     0.06300
H3504       H  0.81056331  0.70400763  0.05103433     0.09700
Br3505     Br  0.83958377  0.69159874  0.00152509    -0.05900
Br3506     Br  0.77393623  0.66644765  0.98188524    -0.02800
Br3507     Br  0.82213325  0.64948085  0.05487039     0.00000
Br3508     Br  0.80611692  0.71158841  0.02011833    -0.04300
C3509       C  0.83019961  0.68266326  0.90661455    -0.11700
C3510       C  0.83778172  0.69569863  0.90274741     0.03700
C3511       C  0.84840199  0.69535341  0.89164950    -0.12300
C3512       C  0.85173077  0.68225581  0.88431452     0.18600
C3513       C  0.84483998  0.66915260  0.88867374    -0.09300
C3514       C  0.83423408  0.66941699  0.89976292    -0.02300
H3515       H  0.85385599  0.70543782  0.88845381     0.05100
C3516       C  0.86183464  0.68255356  0.87163901     0.20600
H3517       H  0.82867149  0.65927897  0.90255728     0.10300
C3518       C  0.87595084  0.67658567  0.87300336    -0.15700
C3519       C  0.88548430  0.67606169  0.86094263     0.03300
C3520       C  0.88086209  0.68157893  0.84720567    -0.11000
C3521       C  0.86683436  0.68788080  0.84602734    -0.01000
C3522       C  0.85734485  0.68838716  0.85806544    -0.06200
H3523       H  0.87952728  0.67226644  0.88349204     0.06300
H3524       H  0.86307335  0.69214885  0.83557924     0.09700
Br3525     Br  0.84879452  0.65083561  0.87903159    -0.05900
Br3526     Br  0.83420214  0.71443714  0.91179140    -0.02800
Br3527     Br  0.90482986  0.66840173  0.86417586     0.00000
Br3528     Br  0.83815236  0.69663860  0.85527927    -0.04300
C3529       C  0.73114974  0.57778924  0.79678204    -0.11700
C3530       C  0.74661373  0.57829941  0.79822457     0.03700
C3531       C  0.75547367  0.57770430  0.78570130    -0.12300
C3532       C  0.74926616  0.57650874  0.77170020     0.18600
C3533       C  0.73393826  0.57560970  0.77022657    -0.09300
C3534       C  0.72501754  0.57637321  0.78269135    -0.02300
H3535       H  0.76729859  0.57839572  0.78685963     0.05100
C3536       C  0.75902936  0.57657036  0.75878897     0.20600
H3537       H  0.71322072  0.57574428  0.78134919     0.10300
C3538       C  0.76721088  0.56397041  0.75546839    -0.15700
C3539       C  0.77730159  0.56399910  0.74388481     0.03300
C3540       C  0.77919984  0.57679000  0.73535476    -0.11000
C3541       C  0.77072190  0.58927911  0.73850136    -0.01000
C3542       C  0.76084550  0.58931330  0.75025323    -0.06200
H3543       H  0.76586427  0.55414275  0.76204110     0.06300
H3544       H  0.77228598  0.59927246  0.73223737     0.09700
Br3545     Br  0.72477686  0.57311980  0.75143708    -0.05900
Br3546     Br  0.75649669  0.58046807  0.81670662    -0.02800
Br3547     Br  0.78791267  0.54619723  0.74002227     0.00000
Br3548     Br  0.75082727  0.60726308  0.75492626    -0.04300
C3549       C  0.76513855  0.65384881  0.90984306    -0.11700
C3550       C  0.75401197  0.65883938  0.90018719     0.03700
C3551       C  0.74594528  0.64872488  0.89194722    -0.12300
C3552       C  0.74869878  0.63366080  0.89305102     0.18600
C3553       C  0.75949306  0.62858272  0.90281796    -0.09300
C3554       C  0.76751289  0.63864115  0.91123512    -0.02300
H3555       H  0.73765909  0.65265336  0.88435483     0.05100
C3556       C  0.74119312  0.62362606  0.88283239     0.20600
H3557       H  0.77600515  0.63456468  0.91847890     0.10300
C3558       C  0.74620348  0.62291332  0.86833401    -0.15700
C3559       C  0.73923999  0.61394909  0.85804021     0.03300
C3560       C  0.72692897  0.60547095  0.86225258    -0.11000
C3561       C  0.72210406  0.60603199  0.87690063    -0.01000
C3562       C  0.72906442  0.61511529  0.88714702    -0.06200
H3563       H  0.75560768  0.62940774  0.86501655     0.06300
H3564       H  0.71262479  0.59969692  0.88031272     0.09700
Br3565     Br  0.76421568  0.60809716  0.90423247    -0.05900
Br3566     Br  0.74907555  0.67918938  0.89753259    -0.02800
Br3567     Br  0.74755956  0.61353330  0.83868218     0.00000
Br3568     Br  0.72135537  0.61598775  0.90671404    -0.04300
C3569       C  0.71180017  0.77562085  0.93370142    -0.11700
C3570       C  0.71007199  0.76116350  0.93918024     0.03700
C3571       C  0.72199669  0.75149689  0.93911582    -0.12300
C3572       C  0.73579400  0.75589723  0.93391683     0.18600
C3573       C  0.73769021  0.77036671  0.92887734    -0.09300
C3574       C  0.72577599  0.78006413  0.92881938    -0.02300
H3575       H  0.72047116  0.74036801  0.94304703     0.05100
C3576       C  0.74777698  0.74493479  0.93345073     0.20600
H3577       H  0.72743919  0.79109090  0.92466742     0.10300
C3578       C  0.75259836  0.73957899  0.91983011    -0.15700
C3579       C  0.76233009  0.72769296  0.91900844     0.03300
C3580       C  0.76737226  0.72096644  0.93205113    -0.11000
C3581       C  0.76291268  0.72670981  0.94564134    -0.01000
C3582       C  0.75325189  0.73858898  0.94642057    -0.06200
H3583       H  0.74827175  0.74426569  0.90979062     0.06300
H3584       H  0.76680811  0.72180303  0.95575248     0.09700
Br3585     Br  0.75634665  0.77746463  0.92218196    -0.05900
Br3586     Br  0.69198486  0.75367238  0.94705107    -0.02800
Br3587     Br  0.76709399  0.72038047  0.89980196     0.00000
Br3588     Br  0.74771856  0.74567236  0.96547039    -0.04300
C3589       C  0.66856390  0.81435089  0.97074722    -0.11700
C3590       C  0.66192636  0.80410981  0.98035455     0.03700
C3591       C  0.66183569  0.80677837  0.99546506    -0.12300
C3592       C  0.66828898  0.81945534  0.00135716     0.18600
C3593       C  0.67416037  0.83006238  0.99176638    -0.09300
C3594       C  0.67425133  0.82745991  0.97662350    -0.02300
H3595       H  0.65755263  0.79840537  0.00276481     0.05100
C3596       C  0.67107996  0.81990735  0.01736682     0.20600
H3597       H  0.67922569  0.83554201  0.96945391     0.10300
C3598       C  0.68567461  0.81928560  0.02220664    -0.15700
C3599       C  0.68905379  0.81669688  0.03693518     0.03300
C3600       C  0.67759728  0.81436625  0.04717540    -0.11000
C3601       C  0.66297901  0.81582012  0.04243306    -0.01000
C3602       C  0.65966722  0.81864280  0.02771177    -0.06200
H3603       H  0.69454677  0.82008395  0.01431735     0.06300
H3604       H  0.65402602  0.81443155  0.05014672     0.09700
Br3605     Br  0.68257165  0.84803431  0.99888035    -0.05900
Br3606     Br  0.65432344  0.78546828  0.97404212    -0.02800
Br3607     Br  0.70955859  0.81546958  0.04175287     0.00000
Br3608     Br  0.63941978  0.82053436  0.02225902    -0.04300
C3609       C  0.54189614  0.69158355  0.83118624    -0.11700
C3610       C  0.53335365  0.69330160  0.84406243     0.03700
C3611       C  0.51804257  0.69233232  0.84329825    -0.12300
C3612       C  0.51093325  0.68953604  0.82996189     0.18600
C3613       C  0.51936403  0.68738532  0.81719641    -0.09300
C3614       C  0.53468804  0.68836542  0.81789139    -0.02300
H3615       H  0.51158899  0.69401802  0.85315541     0.05100
C3616       C  0.49473157  0.69034198  0.82936951     0.20600
H3617       H  0.54094125  0.68708029  0.80785940     0.10300
C3618       C  0.48801466  0.70408588  0.83089188    -0.15700
C3619       C  0.47278097  0.70563572  0.82980905     0.03300
C3620       C  0.46389967  0.69316741  0.82699477    -0.11000
C3621       C  0.47070216  0.67930846  0.82601388    -0.01000
C3622       C  0.48594871  0.67781991  0.82726344    -0.06200
H3623       H  0.49473214  0.71374004  0.83277373     0.06300
H3624       H  0.46417339  0.66955703  0.82409827     0.09700
Br3625     Br  0.51037337  0.68402129  0.79842584    -0.05900
Br3626     Br  0.54163540  0.69698425  0.86310029    -0.02800
Br3627     Br  0.46517461  0.72514803  0.83240149     0.00000
Br3628     Br  0.49428066  0.65849545  0.82621934    -0.04300
C3629       C  0.61004732  0.66169820  0.83491346    -0.11700
C3630       C  0.61905254  0.65889295  0.84727069     0.03700
C3631       C  0.62861335  0.64683018  0.84718042    -0.12300
C3632       C  0.62961749  0.63762537  0.83488908     0.18600
C3633       C  0.62034580  0.64009979  0.82281334    -0.09300
C3634       C  0.61059018  0.65193419  0.82296623    -0.02300
H3635       H  0.63593820  0.64512009  0.85640103     0.05100
C3636       C  0.64177216  0.62691753  0.83401669     0.20600
H3637       H  0.60380936  0.65384456  0.81338997     0.10300
C3638       C  0.64018257  0.61279818  0.83994114    -0.15700
C3639       C  0.65180807  0.60268009  0.83942347     0.03300
C3640       C  0.66528137  0.60669609  0.83278181    -0.11000
C3641       C  0.66666780  0.62084180  0.82676716    -0.01000
C3642       C  0.65515062  0.63092519  0.82746565    -0.06200
H3643       H  0.62988466  0.60966290  0.84499619     0.06300
H3644       H  0.67691956  0.62425332  0.82178659     0.09700
Br3645     Br  0.62143338  0.62829955  0.80540547    -0.05900
Br3646     Br  0.62024055  0.67185485  0.86386567    -0.02800
Br3647     Br  0.64834463  0.58353763  0.84753925     0.00000
Br3648     Br  0.65831771  0.65028342  0.81974378    -0.04300
C3649       C  0.60742589  0.73084462  0.85629149    -0.11700
C3650       C  0.60497943  0.73192490  0.87156998     0.03700
C3651       C  0.61256575  0.74246861  0.87980078    -0.12300
C3652       C  0.62252927  0.75207366  0.87305782     0.18600
C3653       C  0.62467726  0.75128082  0.85779010    -0.09300
C3654       C  0.61723234  0.74067976  0.84956227    -0.02300
H3655       H  0.61103591  0.74288370  0.89159203     0.05100
C3656       C  0.63172927  0.76176306  0.88225356     0.20600
H3657       H  0.61908165  0.74016998  0.83782174     0.10300
C3658       C  0.64667087  0.75846231  0.88363858    -0.15700
C3659       C  0.65591284  0.76713650  0.89225019     0.03300
C3660       C  0.65013406  0.77933027  0.89995298    -0.11000
C3661       C  0.63509594  0.78257046  0.89860951    -0.01000
C3662       C  0.62592345  0.77396441  0.88974166    -0.06200
H3663       H  0.65116448  0.74900377  0.87798193     0.06300
H3664       H  0.63049168  0.79195078  0.90431287     0.09700
Br3665     Br  0.63758300  0.76458837  0.84775140    -0.05900
Br3666     Br  0.59237855  0.71866114  0.88204465    -0.02800
Br3667     Br  0.67611166  0.76114581  0.89339146     0.00000
Br3668     Br  0.60572468  0.77954265  0.88769639    -0.04300
C3669       C  0.67603181  0.89834658  0.84830869    -0.11700
C3670       C  0.66432244  0.88842717  0.85075043     0.03700
C3671       C  0.66492112  0.87868127  0.86257895    -0.12300
C3672       C  0.67694003  0.87860592  0.87216194     0.18600
C3673       C  0.68831056  0.88886445  0.87014133    -0.09300
C3674       C  0.68783297  0.89857324  0.85824770    -0.02300
H3675       H  0.65622846  0.87067135  0.86396241     0.05100
C3676       C  0.67813185  0.86665240  0.88306595     0.20600
H3677       H  0.69685011  0.90616286  0.85663208     0.10300
C3678       C  0.68878323  0.85576866  0.88091156    -0.15700
C3679       C  0.68947149  0.84342870  0.89001209     0.03300
C3680       C  0.67928155  0.84182524  0.90165308    -0.11000
C3681       C  0.66881004  0.85296541  0.90393395    -0.01000
C3682       C  0.66813538  0.86524757  0.89473915    -0.06200
H3683       H  0.69635840  0.85668087  0.87177357     0.06300
H3684       H  0.66093427  0.85204821  0.91279654     0.09700
Br3685     Br  0.70469316  0.88990403  0.88333321    -0.05900
Br3686     Br  0.64783163  0.88647873  0.83772481    -0.02800
Br3687     Br  0.70407125  0.82900434  0.88512477     0.00000
Br3688     Br  0.65337802  0.87980052  0.89850702    -0.04300
C3689       C  0.59058254  0.78150852  0.73696373    -0.11700
C3690       C  0.57926498  0.77088979  0.73698399     0.03700
C3691       C  0.57946439  0.75957681  0.74736197    -0.12300
C3692       C  0.59070500  0.75868978  0.75782378     0.18600
C3693       C  0.60218771  0.76899668  0.75756662    -0.09300
C3694       C  0.60204863  0.78028645  0.74720376    -0.02300
H3695       H  0.57051831  0.75173172  0.74763886     0.05100
C3696       C  0.58965282  0.74771334  0.76966300     0.20600
H3697       H  0.61077111  0.78837841  0.74740512     0.10300
C3698       C  0.59928514  0.73572555  0.76986466    -0.15700
C3699       C  0.59895811  0.72554572  0.78138370     0.03300
C3700       C  0.58863192  0.72724553  0.79289526    -0.11000
C3701       C  0.57890226  0.73923217  0.79244952    -0.01000
C3702       C  0.57942353  0.74945065  0.78107126    -0.06200
H3703       H  0.60727143  0.73444624  0.76113337     0.06300
H3704       H  0.57097849  0.74089139  0.80116213     0.09700
Br3705     Br  0.61771800  0.76869142  0.77179428    -0.05900
Br3706     Br  0.56251183  0.77192266  0.72422199    -0.02800
Br3707     Br  0.61329174  0.71008933  0.78076821     0.00000
Br3708     Br  0.56651973  0.76609448  0.78205666    -0.04300
C3709       C  0.54221166  0.82299073  0.70874377    -0.11700
C3710       C  0.53286934  0.81710310  0.71969079     0.03700
C3711       C  0.51765799  0.81782877  0.71791618    -0.12300
C3712       C  0.51150685  0.82418993  0.70536791     0.18600
C3713       C  0.52070138  0.82997689  0.69443299    -0.09300
C3714       C  0.53593509  0.82931711  0.69614822    -0.02300
H3715       H  0.51055350  0.81320493  0.72627653     0.05100
C3716       C  0.49543740  0.82435674  0.70377946     0.20600
H3717       H  0.54288531  0.83378410  0.68760033     0.10300
C3718       C  0.48765786  0.83715894  0.70720905    -0.15700
C3719       C  0.47231144  0.83743050  0.70661237     0.03300
C3720       C  0.46452077  0.82463380  0.70244311    -0.11000
C3721       C  0.47250119  0.81195391  0.69863304    -0.01000
C3722       C  0.48780297  0.81172641  0.69934149    -0.06200
H3723       H  0.49357072  0.84692560  0.71057877     0.06300
H3724       H  0.46682908  0.80198939  0.69547633     0.09700
Br3725     Br  0.51285130  0.83853488  0.67687826    -0.05900
Br3726     Br  0.53991078  0.80705471  0.73686096    -0.02800
Br3727     Br  0.46294281  0.85563635  0.71165663     0.00000
Br3728     Br  0.49786721  0.79390084  0.69430646    -0.04300
C3729       C  0.60822685  0.85135545  0.73633597    -0.11700
C3730       C  0.60151624  0.85828043  0.74849127     0.03700
C3731       C  0.60987800  0.86734086  0.75763190    -0.12300
C3732       C  0.62482524  0.86968497  0.75484700     0.18600
C3733       C  0.63142996  0.86310154  0.74254920    -0.09300
C3734       C  0.62314221  0.85400830  0.73344222    -0.02300
H3735       H  0.60479625  0.87230425  0.76718083     0.05100
C3736       C  0.63353810  0.87850901  0.76521327     0.20600
H3737       H  0.62844931  0.84884893  0.72413072     0.10300
C3738       C  0.64444678  0.87157829  0.77355083    -0.15700
C3739       C  0.65336263  0.87964074  0.78306179     0.03300
C3740       C  0.65119976  0.89493675  0.78450354    -0.11000
C3741       C  0.63994606  0.90174787  0.77645912    -0.01000
C3742       C  0.63122317  0.89368568  0.76676990    -0.06200
H3743       H  0.64612293  0.85984091  0.77251275     0.06300
H3744       H  0.63822512  0.91349237  0.77733842     0.09700
Br3745     Br  0.65170360  0.86627944  0.73771250    -0.05900
Br3746     Br  0.58143247  0.85497848  0.75400185    -0.02800
Br3747     Br  0.66792902  0.86896323  0.79395151     0.00000
Br3748     Br  0.61690403  0.90398197  0.75525572    -0.04300
C3749       C  0.91240114  0.76880112  0.72367520    -0.11700
C3750       C  0.90141213  0.76983846  0.73463620     0.03700
C3751       C  0.90087088  0.75941548  0.74596757    -0.12300
C3752       C  0.91097225  0.74780422  0.74655488     0.18600
C3753       C  0.92178948  0.74668403  0.73557798    -0.09300
C3754       C  0.92247032  0.75712333  0.72437593    -0.02300
H3755       H  0.89229708  0.76016064  0.75418508     0.05100
C3756       C  0.90940443  0.73627211  0.75793395     0.20600
H3757       H  0.93098202  0.75604247  0.71613985     0.10300
C3758       C  0.90483561  0.72225343  0.75359106    -0.15700
C3759       C  0.90373442  0.71076770  0.76369894     0.03300
C3760       C  0.90733911  0.71315736  0.77863089    -0.11000
C3761       C  0.91139838  0.72740450  0.78307326    -0.01000
C3762       C  0.91247050  0.73891041  0.77286098    -0.06200
H3763       H  0.90213501  0.72022814  0.74218271     0.06300
H3764       H  0.91406023  0.72954364  0.79446380     0.09700
Br3765     Br  0.93597673  0.73110465  0.73539937    -0.05900
Br3766     Br  0.88634464  0.78459772  0.73452622    -0.02800
Br3767     Br  0.89656360  0.69236500  0.75625743     0.00000
Br3768     Br  0.91875369  0.75784953  0.77963608    -0.04300
C3769       C  0.96184174  0.80831774  0.68908903    -0.11700
C3770       C  0.96951970  0.81418206  0.67694221     0.03700
C3771       C  0.98486846  0.81493660  0.67724185    -0.12300
C3772       C  0.99276327  0.80995885  0.68945995     0.18600
C3773       C  0.98514741  0.80465992  0.70178770    -0.09300
C3774       C  0.96982908  0.80397717  0.70156821    -0.02300
H3775       H  0.99071680  0.81912714  0.66776090     0.05100
C3776       C  0.00892163  0.80929905  0.68870913     0.20600
H3777       H  0.96419138  0.79944661  0.71100558     0.10300
C3778       C  0.01740099  0.82036126  0.69524508    -0.15700
C3779       C  0.03277411  0.81962076  0.69503375     0.03300
C3780       C  0.03981641  0.80748824  0.68837572    -0.11000
C3781       C  0.03121966  0.79674672  0.68140913    -0.01000
C3782       C  0.01592981  0.79758126  0.68152159    -0.06200
H3783       H  0.01203495  0.82958312  0.70050568     0.06300
H3784       H  0.03639055  0.78737652  0.67619115     0.09700
Br3785     Br  0.99523294  0.79737001  0.71877984    -0.05900
Br3786     Br  0.95985199  0.82160115  0.65976716    -0.02800
Br3787     Br  0.04343973  0.83583379  0.70327032     0.00000
Br3788     Br  0.00503153  0.78220763  0.67209390    -0.04300
C3789       C  0.83095486  0.69738395  0.54574037    -0.11700
C3790       C  0.83630586  0.68437169  0.53915172     0.03700
C3791       C  0.83692828  0.68322921  0.52382069    -0.12300
C3792       C  0.83245764  0.69490098  0.51486737     0.18600
C3793       C  0.82753239  0.70800796  0.52136445    -0.09300
C3794       C  0.82684080  0.70917248  0.53664788    -0.02300
H3795       H  0.84082836  0.67314772  0.51884071     0.05100
C3796       C  0.83216579  0.69298393  0.49878200     0.20600
H3797       H  0.82266700  0.71924445  0.54141914     0.10300
C3798       C  0.81997448  0.68616235  0.49237030    -0.15700
C3799       C  0.81854448  0.68533497  0.47711225     0.03300
C3800       C  0.82952425  0.69141201  0.46798320    -0.11000
C3801       C  0.84213600  0.69750544  0.47448448    -0.01000
C3802       C  0.84345015  0.69843361  0.48976731    -0.06200
H3803       H  0.81133824  0.68179117  0.49929273     0.06300
H3804       H  0.85067730  0.70222877  0.46768419     0.09700
Br3805     Br  0.82118186  0.72441072  0.50975495    -0.05900
Br3806     Br  0.84336835  0.66796098  0.55031271    -0.02800
Br3807     Br  0.80137234  0.67570039  0.46954207     0.00000
Br3808     Br  0.86045427  0.70782726  0.49789298    -0.04300
C3809       C  0.81119791  0.60737832  0.66727816    -0.11700
C3810       C  0.82032085  0.60489666  0.65497767     0.03700
C3811       C  0.82064206  0.61510615  0.64348517    -0.12300
C3812       C  0.81224515  0.62800495  0.64411126     0.18600
C3813       C  0.80272235  0.63022095  0.65609785    -0.09300
C3814       C  0.80214731  0.61987567  0.66744141    -0.02300
H3815       H  0.82785210  0.61321911  0.63421414     0.05100
C3816       C  0.81436484  0.63951231  0.63279781     0.20600
H3817       H  0.79510859  0.62200617  0.67679833     0.10300
C3818       C  0.80279728  0.64321440  0.62332526    -0.15700
C3819       C  0.80416261  0.65487834  0.61337592     0.03300
C3820       C  0.81733741  0.66305291  0.61279123    -0.11000
C3821       C  0.82911831  0.65884306  0.62180402    -0.01000
C3822       C  0.82771860  0.64724706  0.63176164    -0.06200
H3823       H  0.79257936  0.63713783  0.62384676     0.06300
H3824       H  0.83930683  0.66497694  0.62154864     0.09700
Br3825     Br  0.79122786  0.64777798  0.65812162    -0.05900
Br3826     Br  0.83252933  0.58781759  0.65311310    -0.02800
Br3827     Br  0.78781914  0.65881045  0.60066899     0.00000
Br3828     Br  0.84407334  0.64303511  0.64437476    -0.04300
C3829       C  0.85331904  0.72576848  0.61358490    -0.11700
C3830       C  0.86426748  0.73463633  0.60697815     0.03700
C3831       C  0.87317817  0.74359066  0.61574763    -0.12300
C3832       C  0.87144944  0.74388487  0.63100990     0.18600
C3833       C  0.86089561  0.73484097  0.63766146    -0.09300
C3834       C  0.85197669  0.72588671  0.62898726    -0.02300
H3835       H  0.88134117  0.75056997  0.61062220     0.05100
C3836       C  0.88027950  0.75414463  0.63985298     0.20600
H3837       H  0.84376747  0.71916089  0.63436503     0.10300
C3838       C  0.87429358  0.76780808  0.64358047    -0.15700
C3839       C  0.88192282  0.77749378  0.65271808     0.03300
C3840       C  0.89580484  0.77345362  0.65834228    -0.11000
C3841       C  0.90197658  0.75994787  0.65413766    -0.01000
C3842       C  0.89429850  0.75029451  0.64498703    -0.06200
H3843       H  0.86356552  0.77087688  0.63945965     0.06300
H3844       H  0.91261318  0.75667779  0.65834240     0.09700
Br3845     Br  0.85817927  0.73458523  0.65856098    -0.05900
Br3846     Br  0.86747858  0.73562811  0.58616881    -0.02800
Br3847     Br  0.87301171  0.79623232  0.65657662     0.00000
Br3848     Br  0.90306106  0.73176464  0.64015312    -0.04300
C3849       C  0.76630244  0.91379369  0.72382867    -0.11700
C3850       C  0.75107105  0.91160902  0.72172564     0.03700
C3851       C  0.74143581  0.91328528  0.73354914    -0.12300
C3852       C  0.74659838  0.91741485  0.74744104     0.18600
C3853       C  0.76171578  0.91966470  0.74955853    -0.09300
C3854       C  0.77143885  0.91767621  0.73785038    -0.02300
H3855       H  0.72979838  0.91142845  0.73189472     0.05100
C3856       C  0.73597871  0.91918080  0.75955362     0.20600
H3857       H  0.78304594  0.91960396  0.73963512     0.10300
C3858       C  0.73603000  0.90910171  0.77118449    -0.15700
C3859       C  0.72536532  0.90974280  0.78223590     0.03300
C3860       C  0.71432378  0.92066114  0.78164775    -0.11000
C3861       C  0.71462907  0.93096855  0.77016872    -0.01000
C3862       C  0.72530567  0.93031635  0.75921519    -0.06200
H3863       H  0.74420434  0.90045690  0.77144931     0.06300
H3864       H  0.70638898  0.93952558  0.76956938     0.09700
Br3865     Br  0.76944792  0.92631657  0.76798271    -0.05900
Br3866     Br  0.74260383  0.90598400  0.70323234    -0.02800
Br3867     Br  0.72617583  0.89483870  0.79713471     0.00000
Br3868     Br  0.72488939  0.94494995  0.74406474    -0.04300
C3869       C  0.83564044  0.88811221  0.69111853    -0.11700
C3870       C  0.84898016  0.89333710  0.68507415     0.03700
C3871       C  0.86136330  0.88419177  0.68479344    -0.12300
C3872       C  0.86069741  0.86989234  0.69042854     0.18600
C3873       C  0.84755366  0.86479730  0.69670463    -0.09300
C3874       C  0.83523254  0.87389296  0.69708660    -0.02300
H3875       H  0.87151026  0.88818374  0.68003692     0.05100
C3876       C  0.87354702  0.86009659  0.68930945     0.20600
H3877       H  0.82513905  0.86962376  0.70171738     0.10300
C3878       C  0.88238970  0.85781914  0.70168564    -0.15700
C3879       C  0.89312883  0.84682368  0.70173906     0.03300
C3880       C  0.89512220  0.83792567  0.68918130    -0.11000
C3881       C  0.88691995  0.84097109  0.67647774    -0.01000
C3882       C  0.87611300  0.85185517  0.67651208    -0.06200
H3883       H  0.88052773  0.86424053  0.71152962     0.06300
H3884       H  0.88825562  0.83426572  0.66674233     0.09700
Br3885     Br  0.84573788  0.84522682  0.70431485    -0.05900
Br3886     Br  0.85122670  0.91284226  0.67737928    -0.02800
Br3887     Br  0.90453691  0.84446987  0.71930582     0.00000
Br3888     Br  0.86424810  0.85419887  0.65927659    -0.04300
C3889       C  0.72804691  0.78147629  0.58187741    -0.11700
C3890       C  0.74112250  0.78265817  0.57358879     0.03700
C3891       C  0.75180017  0.77167430  0.57457033    -0.12300
C3892       C  0.74954977  0.75924592  0.58335971     0.18600
C3893       C  0.73611436  0.75754744  0.59078455    -0.09300
C3894       C  0.72550516  0.76861678  0.59002139    -0.02300
H3895       H  0.76200476  0.77291006  0.56857733     0.05100
C3896       C  0.76152214  0.74843088  0.58506533     0.20600
H3897       H  0.71545278  0.76736986  0.59626511     0.10300
C3898       C  0.76826622  0.74682412  0.59881263    -0.15700
C3899       C  0.77974439  0.73682780  0.60085650     0.03300
C3900       C  0.78479167  0.72832941  0.58888869    -0.11000
C3901       C  0.77786936  0.72986926  0.57518179    -0.01000
C3902       C  0.76637261  0.73983411  0.57319668    -0.06200
H3903       H  0.76453341  0.75337813  0.60801927     0.06300
H3904       H  0.78158698  0.72348507  0.56585596     0.09700
Br3905     Br  0.73182468  0.74028141  0.60208027    -0.05900
Br3906     Br  0.74497170  0.79867634  0.56040670    -0.02800
Br3907     Br  0.78747507  0.73491761  0.62037847     0.00000
Br3908     Br  0.75743370  0.74111472  0.55416812    -0.04300
C3909       C  0.69036562  0.82318716  0.54433162    -0.11700
C3910       C  0.68603739  0.81148278  0.53503088     0.03700
C3911       C  0.68598714  0.81344484  0.51977585    -0.12300
C3912       C  0.69005477  0.82689017  0.51350741     0.18600
C3913       C  0.69343310  0.83880426  0.52272007    -0.09300
C3914       C  0.69366417  0.83687546  0.53795628    -0.02300
H3915       H  0.68333877  0.80423560  0.51271995     0.05100
C3916       C  0.69222078  0.82773834  0.49743001     0.20600
H3917       H  0.69680816  0.84607546  0.54482652     0.10300
C3918       C  0.68007845  0.82849125  0.48799285    -0.15700
C3919       C  0.68194670  0.82819404  0.47268809     0.03300
C3920       C  0.69620318  0.82683663  0.46665238    -0.11000
C3921       C  0.70830168  0.82658984  0.47621151    -0.01000
C3922       C  0.70642369  0.82700136  0.49141408    -0.06200
H3923       H  0.66911949  0.82925008  0.49255796     0.06300
H3924       H  0.71933748  0.82556323  0.47186992     0.09700
Br3925     Br  0.69821010  0.85776546  0.51489094    -0.05900
Br3926     Br  0.68101843  0.79224104  0.54209065    -0.02800
Br3927     Br  0.66470780  0.83026239  0.46075500     0.00000
Br3928     Br  0.72361382  0.82579940  0.50354141    -0.04300
C3929       C  0.66531593  0.81521218  0.61768208    -0.11700
C3930       C  0.66655232  0.80783737  0.63131225     0.03700
C3931       C  0.65503937  0.80850137  0.64143038    -0.12300
C3932       C  0.64227321  0.81652391  0.63841902     0.18600
C3933       C  0.64110877  0.82412937  0.62502768    -0.09300
C3934       C  0.65252022  0.82334869  0.61477223    -0.02300
H3935       H  0.65618035  0.80297559  0.65190682     0.05100
C3936       C  0.63073847  0.81741222  0.64980529     0.20600
H3937       H  0.65139280  0.82922316  0.60449658     0.10300
C3938       C  0.62805035  0.83090026  0.65671663    -0.15700
C3939       C  0.61817520  0.83195725  0.66842691     0.03300
C3940       C  0.61088252  0.81921806  0.67353304    -0.11000
C3941       C  0.61340055  0.80578846  0.66636382    -0.01000
C3942       C  0.62317773  0.80481281  0.65459072    -0.06200
H3943       H  0.63399884  0.84060044  0.65323148     0.06300
H3944       H  0.60787301  0.79591642  0.67004777     0.09700
Br3945     Br  0.62413632  0.83564339  0.62022039    -0.05900
Br3946     Br  0.68389389  0.79753083  0.63749672    -0.02800
Br3947     Br  0.61616240  0.85092985  0.67744828     0.00000
Br3948     Br  0.62580031  0.78602759  0.64539915    -0.04300
C3949       C  0.72635764  0.84517846  0.61198895    -0.11700
C3950       C  0.74098801  0.84144505  0.61543068     0.03700
C3951       C  0.74936012  0.85075360  0.62429246    -0.12300
C3952       C  0.74336933  0.86371878  0.63002034     0.18600
C3953       C  0.72884815  0.86760471  0.62641268    -0.09300
C3954       C  0.72051462  0.85841987  0.61730639    -0.02300
H3955       H  0.76056272  0.84775223  0.62694357     0.05100
C3956       C  0.75234837  0.87255086  0.64025841     0.20600
H3957       H  0.70925130  0.86135462  0.61483079     0.10300
C3958       C  0.75890020  0.88562354  0.63544240    -0.15700
C3959       C  0.76836748  0.89358110  0.64462926     0.03300
C3960       C  0.77130280  0.88845206  0.65902063    -0.11000
C3961       C  0.76460226  0.87536133  0.66372957    -0.01000
C3962       C  0.75526480  0.86744351  0.65451575    -0.06200
H3963       H  0.75686476  0.88948547  0.62437645     0.06300
H3964       H  0.76655622  0.87122951  0.67470403     0.09700
Br3965     Br  0.71967232  0.88478557  0.63441097    -0.05900
Br3966     Br  0.75031703  0.82406205  0.60795994    -0.02800
Br3967     Br  0.77724810  0.91090526  0.63649447     0.00000
Br3968     Br  0.74662402  0.84971530  0.66193968    -0.04300
C3969       C  0.32336110  0.03793488  0.81013391    -0.11700
C3970       C  0.31105187  0.02912369  0.80663975     0.03700
C3971       C  0.31167466  0.01391243  0.80864882    -0.12300
C3972       C  0.32427602  0.00720512  0.81435360     0.18600
C3973       C  0.33634133  0.01599570  0.81837076    -0.09300
C3974       C  0.33590525  0.03120285  0.81605201    -0.02300
H3975       H  0.30241954  0.00720967  0.80532994     0.05100
C3976       C  0.32518320  0.99097139  0.81446886     0.20600
H3977       H  0.34537235  0.03779472  0.81895224     0.10300
C3978       C  0.33465588  0.98410102  0.80449688    -0.15700
C3979       C  0.33500585  0.96882136  0.80308856     0.03300
C3980       C  0.32576727  0.95999536  0.81197583    -0.11000
C3981       C  0.31657178  0.96695478  0.82227897    -0.01000
C3982       C  0.31610069  0.98228441  0.82345108    -0.06200
H3983       H  0.34151914  0.99074529  0.79739004     0.06300
H3984       H  0.30935093  0.96048953  0.82916798     0.09700
Br3985     Br  0.35345072  0.00766364  0.82737174    -0.05900
Br3986     Br  0.29344339  0.03688162  0.79802108    -0.02800
Br3987     Br  0.34786356  0.96116317  0.78819645     0.00000
Br3988     Br  0.30272663  0.99086070  0.83728073    -0.04300
C3989       C  0.35256554  0.10413200  0.77283123    -0.11700
C3990       C  0.35770045  0.09813844  0.75949418     0.03700
C3991       C  0.36690493  0.10644730  0.75042530    -0.12300
C3992       C  0.37102605  0.12072094  0.75439669     0.18600
C3993       C  0.36602874  0.12668802  0.76773188    -0.09300
C3994       C  0.35685013  0.11840294  0.77683001    -0.02300
H3995       H  0.37045253  0.10196188  0.73998928     0.05100
C3996       C  0.37925413  0.12981196  0.74385246     0.20600
H3997       H  0.35292783  0.12317974  0.78699610     0.10300
C3998       C  0.37134933  0.13860648  0.73406175    -0.15700
C3999       C  0.37856740  0.14816248  0.72449585     0.03300
C4000       C  0.39406104  0.14901734  0.72464742    -0.11000
C4001       C  0.40198242  0.13970413  0.73408056    -0.01000
C4002       C  0.39467592  0.13017803  0.74369749    -0.06200
H4003       H  0.35945875  0.13817720  0.73402808     0.06300
H4004       H  0.41386836  0.14020559  0.73436354     0.09700
Br4005     Br  0.37112844  0.14627334  0.77363947    -0.05900
Br4006     Br  0.35125779  0.07939158  0.75232148    -0.02800
Br4007     Br  0.36654158  0.15941776  0.71132753     0.00000
Br4008     Br  0.40604106  0.11825088  0.75680203    -0.04300
C4009       C  0.32750894  0.18629975  0.96657229    -0.11700
C4010       C  0.32259338  0.17314718  0.97327855     0.03700
C4011       C  0.32325486  0.17162746  0.98857181    -0.12300
C4012       C  0.32865709  0.18299805  0.99743269     0.18600
C4013       C  0.33413442  0.19581235  0.99075913    -0.09300
C4014       C  0.33361030  0.19732841  0.97549747    -0.02300
H4015       H  0.31915462  0.16167048  0.99363436     0.05100
C4016       C  0.32749311  0.18189655  0.01360957     0.20600
H4017       H  0.33748453  0.20748444  0.97065910     0.10300
C4018       C  0.34026536  0.18138545  0.02219919    -0.15700
C4019       C  0.33951527  0.18234542  0.03754196     0.03300
C4020       C  0.32570772  0.18365616  0.04453881    -0.11000
C4021       C  0.31293784  0.18329201  0.03588978    -0.01000
C4022       C  0.31372879  0.18253455  0.02059858    -0.06200
H4023       H  0.35089545  0.18071981  0.01689610     0.06300
H4024       H  0.30223416  0.18431394  0.04098327     0.09700
Br4025     Br  0.34137098  0.21205721  0.00209168    -0.05900
Br4026     Br  0.31478327  0.15681264  0.96244618    -0.02800
Br4027     Br  0.35773305  0.18182807  0.04812013     0.00000
Br4028     Br  0.29570265  0.18365932  0.00974207    -0.04300
C4029       C  0.32158996  0.15995553  0.89421819    -0.11700
C4030       C  0.33095040  0.14763055  0.89540744     0.03700
C4031       C  0.33109839  0.13704665  0.88424369    -0.12300
C4032       C  0.32216507  0.13853252  0.87178972     0.18600
C4033       C  0.31266045  0.15066809  0.87072646    -0.09300
C4034       C  0.31241562  0.16117082  0.88187734    -0.02300
H4035       H  0.33825287  0.12759274  0.88525441     0.05100
C4036       C  0.32278122  0.12726568  0.86009787     0.20600
H4037       H  0.30522153  0.17057336  0.88066617     0.10300
C4038       C  0.31041720  0.11849252  0.85746893    -0.15700
C4039       C  0.31035757  0.10810976  0.84615653     0.03300
C4040       C  0.32291873  0.10629908  0.83724070    -0.11000
C4041       C  0.33550825  0.11470285  0.84028364    -0.01000
C4042       C  0.33548429  0.12519584  0.85152579    -0.06200
H4043       H  0.30069575  0.11982551  0.86421219     0.06300
H4044       H  0.34521379  0.11355862  0.83350135     0.09700
Br4045     Br  0.30025026  0.15382910  0.85399508    -0.05900
Br4046     Br  0.34343533  0.14424586  0.91203586    -0.02800
Br4047     Br  0.29293047  0.09648326  0.84382132     0.00000
Br4048     Br  0.35268424  0.13711276  0.85412284    -0.04300
C4049       C  0.41654919  0.27305749  0.78403810    -0.11700
C4050       C  0.42833185  0.26336300  0.78118597     0.03700
C4051       C  0.42767393  0.25382879  0.76917287    -0.12300
C4052       C  0.41551540  0.25382873  0.75977852     0.18600
C4053       C  0.40414187  0.26400618  0.76208684    -0.09300
C4054       C  0.40474830  0.27358282  0.77410779    -0.02300
H4055       H  0.43654008  0.24610011  0.76734616     0.05100
C4056       C  0.41434524  0.24219844  0.74854239     0.20600
H4057       H  0.39565550  0.28101356  0.77603555     0.10300
C4058       C  0.40590312  0.22976796  0.75171778    -0.15700
C4059       C  0.40547006  0.21783522  0.74207806     0.03300
C4060       C  0.41378561  0.21816479  0.72891979    -0.11000
C4061       C  0.42176375  0.23095797  0.72551139    -0.01000
C4062       C  0.42213205  0.24288739  0.73524149    -0.06200
H4063       H  0.39977997  0.22926523  0.76190954     0.06300
H4064       H  0.42807031  0.23154766  0.71544862     0.09700
Br4065     Br  0.38744333  0.26483122  0.74930416    -0.05900
Br4066     Br  0.44576297  0.26273550  0.79302350    -0.02800
Br4067     Br  0.39301821  0.20172084  0.74766978     0.00000
Br4068     Br  0.43348149  0.25986230  0.73011458    -0.04300
C4069       C  0.39425579  0.26651039  0.85253519    -0.11700
C4070       C  0.39052024  0.25209618  0.84810974     0.03700
C4071       C  0.38276303  0.24294394  0.85766377    -0.12300
C4072       C  0.37871964  0.24782537  0.87165206     0.18600
C4073       C  0.38306004  0.26186450  0.87639829    -0.09300
C4074       C  0.39083418  0.27107824  0.86687043    -0.02300
H4075       H  0.37959792  0.23204777  0.85406288     0.05100
C4076       C  0.36909433  0.23847549  0.88067762     0.20600
H4077       H  0.39373454  0.28203858  0.87050648     0.10300
C4078       C  0.37523937  0.22816780  0.89028243    -0.15700
C4079       C  0.36626207  0.21891311  0.89868000     0.03300
C4080       C  0.35081238  0.22007844  0.89760780    -0.11000
C4081       C  0.34478284  0.23029103  0.88771522    -0.01000
C4082       C  0.35377160  0.23938910  0.87927213    -0.06200
H4083       H  0.38706893  0.22721115  0.89110693     0.06300
H4084       H  0.33298787  0.23131115  0.88658501     0.09700
Br4085     Br  0.37805829  0.26903534  0.89555657    -0.05900
Br4086     Br  0.39597458  0.24400965  0.82939667    -0.02800
Br4087     Br  0.37585718  0.20443153  0.91059843     0.00000
Br4088     Br  0.34469584  0.25285963  0.86584265    -0.04300
C4089       C  0.17042127  0.54191439  0.70265175    -0.11700
C4090       C  0.16792250  0.53260210  0.71487766     0.03700
C4091       C  0.16854034  0.51733911  0.71316551    -0.12300
C4092       C  0.17158097  0.51098152  0.69950728     0.18600
C4093       C  0.17373787  0.52011289  0.68725288    -0.09300
C4094       C  0.17322596  0.53541579  0.68889373    -0.02300
H4095       H  0.16678648  0.51033654  0.72262668     0.05100
C4096       C  0.17236579  0.49477595  0.69844272     0.20600
H4097       H  0.17505523  0.54224567  0.67934206     0.10300
C4098       C  0.15934273  0.48660274  0.69888622    -0.15700
C4099       C  0.15963876  0.47123190  0.69945482     0.03300
C4100       C  0.17325499  0.46373686  0.69966244    -0.11000
C4101       C  0.18626739  0.47200354  0.69865209    -0.01000
C4102       C  0.18591479  0.48736456  0.69817828    -0.06200
H4103       H  0.14886902  0.49225376  0.69907064     0.06300
H4104       H  0.19683384  0.46654680  0.69888774     0.09700
Br4105     Br  0.17716673  0.51210811  0.66807779    -0.05900
Br4106     Br  0.16403106  0.53964883  0.73438637    -0.02800
Br4107     Br  0.14101622  0.46134219  0.69988092     0.00000
Br4108     Br  0.20422791  0.49777315  0.69822399    -0.04300
C4109       C  0.14412512  0.40310750  0.73581214    -0.11700
C4110       C  0.13321038  0.39367413  0.73006682     0.03700
C4111       C  0.12400607  0.38592042  0.73963764    -0.12300
C4112       C  0.12554013  0.38727836  0.75489159     0.18600
C4113       C  0.13597471  0.39711109  0.76060920    -0.09300
C4114       C  0.14511316  0.40495222  0.75109963    -0.02300
H4115       H  0.11615765  0.37816299  0.73517660     0.05100
C4116       C  0.11769387  0.37689597  0.76457537     0.20600
H4117       H  0.15337841  0.41216238  0.75571742     0.10300
C4118       C  0.12577998  0.36571555  0.77136959    -0.15700
C4119       C  0.11887349  0.35515728  0.78007032     0.03300
C4120       C  0.10347096  0.35543825  0.78177722    -0.11000
C4121       C  0.09543619  0.36697356  0.77540371    -0.01000
C4122       C  0.10243971  0.37767451  0.76685060    -0.06200
H4123       H  0.13757442  0.36520670  0.76986863     0.06300
H4124       H  0.08362034  0.36746228  0.77675052     0.09700
Br4125     Br  0.13849666  0.39968015  0.78136741    -0.05900
Br4126     Br  0.13138832  0.38946046  0.70947970    -0.02800
Br4127     Br  0.13122518  0.34120335  0.78994239     0.00000
Br4128     Br  0.09086310  0.39323156  0.75866807    -0.04300
C4129       C  0.22630369  0.27328203  0.92211628    -0.11700
C4130       C  0.22600645  0.26116909  0.91240422     0.03700
C4131       C  0.23649488  0.25004178  0.91380076    -0.12300
C4132       C  0.24727257  0.25076162  0.92472805     0.18600
C4133       C  0.24724421  0.26249530  0.93474214    -0.09300
C4134       C  0.23682128  0.27362749  0.93338316    -0.02300
H4135       H  0.23665794  0.24111378  0.90593223     0.05100
C4136       C  0.25967238  0.24044218  0.92421854     0.20600
H4137       H  0.23709847  0.28272494  0.94105342     0.10300
C4138       C  0.27256335  0.24503189  0.91726539    -0.15700
C4139       C  0.28479992  0.23587581  0.91660595     0.03300
C4140       C  0.28438736  0.22193523  0.92339610    -0.11000
C4141       C  0.27122793  0.21712840  0.92990603    -0.01000
C4142       C  0.25885430  0.22627370  0.93026885    -0.06200
H4143       H  0.27302945  0.25577542  0.91216787     0.06300
H4144       H  0.27062462  0.20633506  0.93488448     0.09700
Br4145     Br  0.26154814  0.26397293  0.95013033    -0.05900
Br4146     Br  0.21260902  0.25973277  0.89619694    -0.02800
Br4147     Br  0.30119968  0.24267362  0.90520363     0.00000
Br4148     Br  0.24112471  0.21918108  0.93914636    -0.04300
C4149       C  0.18878319  0.31203989  0.96267478    -0.11700
C4150       C  0.19013153  0.29958074  0.97178655     0.03700
C4151       C  0.18967051  0.30123606  0.98703701    -0.12300
C4152       C  0.18776585  0.31511798  0.99346437     0.18600
C4153       C  0.18603552  0.32749424  0.98434743    -0.09300
C4154       C  0.18661462  0.32587947  0.96910517    -0.02300
H4155       H  0.19134815  0.29170112  0.99394332     0.05100
C4156       C  0.18891760  0.31654858  0.00961276     0.20600
H4157       H  0.18558915  0.33554477  0.96223266     0.10300
C4158       C  0.20022723  0.32513179  0.01554533    -0.15700
C4159       C  0.20231074  0.32613292  0.03070539     0.03300
C4160       C  0.19338914  0.31774504  0.04030096    -0.11000
C4161       C  0.18182437  0.30944129  0.03430841    -0.01000
C4162       C  0.17943744  0.30894097  0.01915001    -0.06200
H4163       H  0.20756251  0.33106723  0.00829387     0.06300
H4164       H  0.17462055  0.30319737  0.04142232     0.09700
Br4165     Br  0.18289255  0.34683494  0.99213588    -0.05900
Br4166     Br  0.19418835  0.28028963  0.96423939    -0.02800
Br4167     Br  0.21740450  0.33938984  0.03720129     0.00000
Br4168     Br  0.16284820  0.29807122  0.01203257    -0.04300
C4169       C  0.16038764  0.31037346  0.89407728    -0.11700
C4170       C  0.15451711  0.32388753  0.88925256     0.03700
C4171       C  0.14269154  0.32398637  0.87950013    -0.12300
C4172       C  0.13659129  0.31083896  0.87431782     0.18600
C4173       C  0.14222355  0.29734964  0.87936388    -0.09300
C4174       C  0.15402026  0.29721185  0.88916099    -0.02300
H4175       H  0.13870406  0.33440031  0.87534162     0.05100
C4176       C  0.12587470  0.31151060  0.86217217     0.20600
H4177       H  0.15838912  0.28674974  0.89276547     0.10300
C4178       C  0.13001631  0.30583285  0.84849136    -0.15700
C4179       C  0.12091127  0.30723225  0.83627471     0.03300
C4180       C  0.10739887  0.31472830  0.83756448    -0.11000
C4181       C  0.10324653  0.32044970  0.85128158    -0.01000
C4182       C  0.11230274  0.31878271  0.86357751    -0.06200
H4183       H  0.14060721  0.30054643  0.84723294     0.06300
H4184       H  0.09285984  0.32612054  0.85247998     0.09700
Br4185     Br  0.13434854  0.27884945  0.87300020    -0.05900
Br4186     Br  0.16307612  0.34254910  0.89412182    -0.02800
Br4187     Br  0.12821338  0.29951361  0.81804486     0.00000
Br4188     Br  0.10552606  0.32624067  0.88208497    -0.04300
C4189       C  0.27112472  0.41110368  0.78881192    -0.11700
C4190       C  0.27190601  0.42202006  0.77779675     0.03700
C4191       C  0.26173395  0.42200647  0.76629702    -0.12300
C4192       C  0.25058733  0.41141797  0.76559133     0.18600
C4193       C  0.25021195  0.40012259  0.77612879    -0.09300
C4194       C  0.26050807  0.39996222  0.78752196    -0.02300
H4195       H  0.26216205  0.43065392  0.75813661     0.05100
C4196       C  0.23871718  0.41318436  0.75464746     0.20600
H4197       H  0.25967497  0.39151254  0.79585020     0.10300
C4198       C  0.23730752  0.40317809  0.74302057    -0.15700
C4199       C  0.22578557  0.40442158  0.73286754     0.03300
C4200       C  0.21545990  0.41597581  0.73426732    -0.11000
C4201       C  0.21719102  0.42610657  0.74578386    -0.01000
C4202       C  0.22858523  0.42476553  0.75591709    -0.06200
H4203       H  0.24507625  0.39422206  0.74199384     0.06300
H4204       H  0.20943291  0.43501865  0.74715307     0.09700
Br4205     Br  0.23507895  0.38546064  0.77620818    -0.05900
Br4206     Br  0.28634817  0.43739864  0.77777022    -0.02800
Br4207     Br  0.22450032  0.38952054  0.71799751     0.00000
Br4208     Br  0.22928973  0.43858033  0.77183331    -0.04300
C4209       C  0.29913906  0.45847129  0.83539274    -0.11700
C4210       C  0.28684857  0.46782788  0.83712079     0.03700
C4211       C  0.28870645  0.48309054  0.83655852    -0.12300
C4212       C  0.30261932  0.48928921  0.83439923     0.18600
C4213       C  0.31494587  0.48006621  0.83348276    -0.09300
C4214       C  0.31313876  0.46480777  0.83384618    -0.02300
H4215       H  0.27916314  0.49017144  0.83724256     0.05100
C4216       C  0.30383536  0.50525264  0.83169893     0.20600
H4217       H  0.32271516  0.45786148  0.83261750     0.10300
C4218       C  0.30625140  0.51488494  0.84342898    -0.15700
C4219       C  0.30667139  0.53011465  0.84118346     0.03300
C4220       C  0.30458709  0.53594558  0.82690097    -0.11000
C4221       C  0.30269748  0.52612424  0.81512214    -0.01000
C4222       C  0.30221484  0.51094022  0.81744571    -0.06200
H4223       H  0.30765568  0.51053094  0.85440922     0.06300
H4224       H  0.30108153  0.53025819  0.80409716     0.09700
Br4225     Br  0.33435285  0.48789394  0.83119893    -0.05900
Br4226     Br  0.26708886  0.46067757  0.83893960    -0.02800
Br4227     Br  0.31028346  0.54212129  0.85814559     0.00000
Br4228     Br  0.29879794  0.49829832  0.80092603    -0.04300
C4229       C  0.33171747  0.38881442  0.82739262    -0.11700
C4230       C  0.34018983  0.38604644  0.81472574     0.03700
C4231       C  0.35102143  0.37515970  0.81501525    -0.12300
C4232       C  0.35364909  0.36698185  0.82778954     0.18600
C4233       C  0.34575299  0.37026630  0.84065576    -0.09300
C4234       C  0.33489005  0.38110545  0.84037318    -0.02300
H4235       H  0.35730939  0.37290694  0.80516637     0.05100
C4236       C  0.36427883  0.35474149  0.82728003     0.20600
H4237       H  0.32850899  0.38310516  0.85021443     0.10300
C4238       C  0.37789981  0.35616094  0.83427806    -0.15700
C4239       C  0.38829081  0.34482354  0.83372179     0.03300
C4240       C  0.38500103  0.33166075  0.82609569    -0.11000
C4241       C  0.37128585  0.33037896  0.81911526    -0.01000
C4242       C  0.36102580  0.34175124  0.81959991    -0.06200
H4243       H  0.38050473  0.36621977  0.84007864     0.06300
H4244       H  0.36844970  0.32044305  0.81321797     0.09700
Br4245     Br  0.34886761  0.35974848  0.85863593    -0.05900
Br4246     Br  0.33788068  0.39708968  0.79693710    -0.02800
Br4247     Br  0.40674277  0.34843163  0.84325467     0.00000
Br4248     Br  0.34260743  0.33892098  0.80975935    -0.04300
C4249       C  0.26802316  0.38997185  0.85682434    -0.11700
C4250       C  0.27354549  0.37698255  0.86333821     0.03700
C4251       C  0.26404094  0.36765039  0.87096330    -0.12300
C4252       C  0.24908645  0.37095137  0.87223859     0.18600
C4253       C  0.24361314  0.38399823  0.86610539    -0.09300
C4254       C  0.25304431  0.39334334  0.85839728    -0.02300
H4255       H  0.26828641  0.35761554  0.87574243     0.05100
C4256       C  0.23950561  0.36069650  0.88028438     0.20600
H4257       H  0.24861536  0.40324321  0.85352574     0.10300
C4258       C  0.24006593  0.36056829  0.89562518    -0.15700
C4259       C  0.23174992  0.35053868  0.90372436     0.03300
C4260       C  0.22291433  0.34008674  0.89635558    -0.11000
C4261       C  0.22231817  0.34035723  0.88093254    -0.01000
C4262       C  0.23038040  0.35066458  0.87289936    -0.06200
H4263       H  0.24708531  0.36831117  0.90132802     0.06300
H4264       H  0.21545162  0.33260311  0.87508128     0.09700
Br4265     Br  0.22337546  0.38946055  0.86808030    -0.05900
Br4266     Br  0.29360334  0.37065762  0.86149735    -0.02800
Br4267     Br  0.23353705  0.35156224  0.92470945     0.00000
Br4268     Br  0.22866239  0.35061022  0.85190261    -0.04300
C4269       C  0.17284285  0.30767647  0.54723011    -0.11700
C4270       C  0.15932918  0.30810801  0.53956558     0.03700
C4271       C  0.15923845  0.30808368  0.52419690    -0.12300
C4272       C  0.17237691  0.30778477  0.51623125     0.18600
C4273       C  0.18583334  0.30802591  0.52375623    -0.09300
C4274       C  0.18599151  0.30800928  0.53910464    -0.02300
H4275       H  0.14884252  0.30809390  0.51839939     0.05100
C4276       C  0.17187513  0.30668407  0.50008655     0.20600
H4277       H  0.19649203  0.30768033  0.54467525     0.10300
C4278       C  0.17421812  0.31926265  0.49153670    -0.15700
C4279       C  0.17465861  0.31835693  0.47619465     0.03300
C4280       C  0.17266751  0.30463381  0.46923259    -0.11000
C4281       C  0.16975495  0.29219196  0.47786464    -0.01000
C4282       C  0.16947497  0.29309850  0.49315378    -0.06200
H4283       H  0.17590627  0.32977932  0.49684422     0.06300
H4284       H  0.16831041  0.28154483  0.47273637     0.09700
Br4285     Br  0.20422851  0.30755169  0.51347751    -0.05900
Br4286     Br  0.14059029  0.30888129  0.54918710    -0.02800
Br4287     Br  0.17762670  0.33624922  0.46545685     0.00000
Br4288     Br  0.16665652  0.27532930  0.50411267    -0.04300
C4289       C  0.17650498  0.38907841  0.67518305    -0.11700
C4290       C  0.17300968  0.37412910  0.67772139     0.03700
C4291       C  0.17336430  0.36407847  0.66611096    -0.12300
C4292       C  0.17711241  0.36850075  0.65186499     0.18600
C4293       C  0.18016380  0.38342196  0.64918623    -0.09300
C4294       C  0.17981749  0.39355395  0.66077691    -0.02300
H4295       H  0.17071593  0.35266014  0.66821111     0.05100
C4296       C  0.17773660  0.35727838  0.64006768     0.20600
H4297       H  0.18245518  0.40493149  0.65854145     0.10300
C4298       C  0.16702195  0.35720759  0.62901204    -0.15700
C4299       C  0.16661095  0.34604490  0.61838713     0.03300
C4300       C  0.17723254  0.33467752  0.61864043    -0.11000
C4301       C  0.18810309  0.33502901  0.62961720    -0.01000
C4302       C  0.18836036  0.34606750  0.64027854    -0.06200
H4303       H  0.15868262  0.36569732  0.62888714     0.06300
H4304       H  0.19637791  0.32649743  0.63012400     0.09700
Br4305     Br  0.18548440  0.39035349  0.63003380    -0.05900
Br4306     Br  0.16716389  0.36654930  0.69653531    -0.02800
Br4307     Br  0.15085372  0.34683992  0.60441788     0.00000
Br4308     Br  0.20344145  0.34527370  0.65497361    -0.04300
C4309       C  0.07715672  0.22756231  0.72090951    -0.11700
C4310       C  0.08720415  0.22687727  0.73278305     0.03700
C4311       C  0.08672964  0.23756748  0.74383042    -0.12300
C4312       C  0.07656498  0.24907612  0.74322924     0.18600
C4313       C  0.06644646  0.24967780  0.73161984    -0.09300
C4314       C  0.06672821  0.23895137  0.72067736    -0.02300
H4315       H  0.09470351  0.23723268  0.75265370     0.05100
C4316       C  0.07772712  0.26129889  0.75376826     0.20600
H4317       H  0.05888896  0.23973252  0.71177364     0.10300
C4318       C  0.08373219  0.27455804  0.74887091    -0.15700
C4319       C  0.08466885  0.28671443  0.75814297     0.03300
C4320       C  0.07952598  0.28568283  0.77277706    -0.11000
C4321       C  0.07377894  0.27220872  0.77773183    -0.01000
C4322       C  0.07283409  0.26007173  0.76834458    -0.06200
H4323       H  0.08764793  0.27545904  0.73767040     0.06300
H4324       H  0.06978961  0.27114399  0.78888703     0.09700
Br4325     Br  0.05228900  0.26521816  0.73010228    -0.05900
Br4326     Br  0.10247173  0.21241259  0.73436063    -0.02800
Br4327     Br  0.09343312  0.30406369  0.74991841     0.00000
Br4328     Br  0.06434689  0.24224361  0.77567570    -0.04300
C4329       C  0.10170846  0.22609715  0.65756435    -0.11700
C4330       C  0.11643952  0.23016339  0.66050643     0.03700
C4331       C  0.12369608  0.23992178  0.65115814    -0.12300
C4332       C  0.11668718  0.24581303  0.63882530     0.18600
C4333       C  0.10213349  0.24174941  0.63573047    -0.09300
C4334       C  0.09476919  0.23198222  0.64505825    -0.02300
H4335       H  0.13497606  0.24292289  0.65349157     0.05100
C4336       C  0.12504769  0.25589694  0.62925535     0.20600
H4337       H  0.08349722  0.22910512  0.64256415     0.10300
C4338       C  0.12995407  0.25094401  0.61552686    -0.15700
C4339       C  0.13950648  0.25948461  0.60702429     0.03300
C4340       C  0.14445061  0.27317454  0.61241089    -0.11000
C4341       C  0.13910198  0.27828164  0.62594277    -0.01000
C4342       C  0.12938572  0.26984394  0.63427872    -0.06200
H4343       H  0.12672519  0.24016521  0.61164406     0.06300
H4344       H  0.14257893  0.28886724  0.63012448     0.09700
Br4345     Br  0.09179359  0.24969676  0.61920236    -0.05900
Br4346     Br  0.12763723  0.22292367  0.67685811    -0.02800
Br4347     Br  0.14626442  0.25125038  0.58882869     0.00000
Br4348     Br  0.12226171  0.27782536  0.65242980    -0.04300
C4349       C  0.26873140  0.21596680  0.58791904    -0.11700
C4350       C  0.25970451  0.21853050  0.60032851     0.03700
C4351       C  0.24921425  0.22971396  0.59996427    -0.12300
C4352       C  0.24761852  0.23861916  0.58756575     0.18600
C4353       C  0.25704457  0.23667785  0.57551922    -0.09300
C4354       C  0.26747322  0.22538985  0.57573411    -0.02300
H4355       H  0.24211061  0.23138334  0.60936779     0.05100
C4356       C  0.23565702  0.24949918  0.58735223     0.20600
H4357       H  0.27435033  0.22376212  0.56617331     0.10300
C4358       C  0.23802025  0.26346426  0.59330613    -0.15700
C4359       C  0.22655493  0.27365091  0.59428806     0.03300
C4360       C  0.21227259  0.26969588  0.58956570    -0.11000
C4361       C  0.21007944  0.25568352  0.58342669    -0.01000
C4362       C  0.22165720  0.24570784  0.58212864    -0.06200
H4363       H  0.24883011  0.26640037  0.59731035     0.06300
H4364       H  0.19932506  0.25247780  0.57947076     0.09700
Br4365     Br  0.25576644  0.24901031  0.55850610    -0.05900
Br4366     Br  0.26111129  0.20755110  0.61829181    -0.02800
Br4367     Br  0.23131034  0.29249800  0.60247955     0.00000
Br4368     Br  0.21794976  0.22704304  0.57305983    -0.04300
C4369       C  0.30307748  0.17225127  0.54001431    -0.11700
C4370       C  0.29351531  0.16370423  0.53119795     0.03700
C4371       C  0.29518532  0.16360645  0.51588984    -0.12300
C4372       C  0.30633083  0.17172947  0.50902256     0.18600
C4373       C  0.31616560  0.17981863  0.51779256    -0.09300
C4374       C  0.31448160  0.18003693  0.53307563    -0.02300
H4375       H  0.28746771  0.15744593  0.50924739     0.05100
C4376       C  0.30686176  0.17248386  0.49272259     0.20600
H4377       H  0.32204633  0.18653833  0.53954474     0.10300
C4378       C  0.30451159  0.18606023  0.48581264    -0.15700
C4379       C  0.30451870  0.18726858  0.47050744     0.03300
C4380       C  0.30658331  0.17464869  0.46175840    -0.11000
C4381       C  0.30878551  0.16102804  0.46861977    -0.01000
C4382       C  0.30913849  0.15990209  0.48397064    -0.06200
H4383       H  0.30248367  0.19576906  0.49238967     0.06300
H4384       H  0.31038953  0.15125664  0.46201511     0.09700
Br4385     Br  0.33214880  0.19069751  0.50939577    -0.05900
Br4386     Br  0.27742254  0.15252359  0.53901571    -0.02800
Br4387     Br  0.30055490  0.20626802  0.46219963     0.00000
Br4388     Br  0.31332526  0.14108828  0.49244656    -0.04300
C4389       C  0.33208693  0.18314191  0.61182810    -0.11700
C4390       C  0.33082073  0.18939301  0.62599133     0.03700
C4391       C  0.34294031  0.18951888  0.63542646    -0.12300
C4392       C  0.35652798  0.18373894  0.63103896     0.18600
C4393       C  0.35785282  0.17762030  0.61688489    -0.09300
C4394       C  0.34567823  0.17725973  0.60748792    -0.02300
H4395       H  0.34169680  0.19397429  0.64639077     0.05100
C4396       C  0.36884769  0.18353671  0.64173390     0.20600
H4397       H  0.34689104  0.17246724  0.59666994     0.10300
C4398       C  0.37443830  0.17001326  0.64651084    -0.15700
C4399       C  0.38513668  0.16925501  0.65752612     0.03300
C4400       C  0.39027450  0.18229224  0.66430256    -0.11000
C4401       C  0.38489850  0.19585460  0.65919160    -0.01000
C4402       C  0.37439516  0.19655793  0.64797590    -0.06200
H4403       H  0.37018316  0.15992105  0.64186116     0.06300
H4404       H  0.38877312  0.20600989  0.66402901     0.09700
Br4405     Br  0.37616189  0.17007434  0.60969912    -0.05900
Br4406     Br  0.31272278  0.19710474  0.63362447    -0.02800
Br4407     Br  0.39154461  0.14992925  0.66303359     0.00000
Br4408     Br  0.36813603  0.21556792  0.64135122    -0.04300
C4409       C  0.23069755  0.08333853  0.71607310    -0.11700
C4410       C  0.22732343  0.08039336  0.73096057     0.03700
C4411       C  0.23863911  0.07971317  0.74136068    -0.12300
C4412       C  0.25329928  0.08192498  0.73722806     0.18600
C4413       C  0.25667251  0.08475816  0.72245179    -0.09300
C4414       C  0.24545152  0.08540378  0.71204426    -0.02300
H4415       H  0.23600696  0.07746418  0.75274088     0.05100
C4416       C  0.26496495  0.08158938  0.74847500     0.20600
H4417       H  0.24831261  0.08770434  0.70073229     0.10300
C4418       C  0.27409376  0.06926512  0.74953808    -0.15700
C4419       C  0.28574312  0.06893196  0.75955440     0.03300
C4420       C  0.28830214  0.08111327  0.76889094    -0.11000
C4421       C  0.27889713  0.09332034  0.76793502    -0.01000
C4422       C  0.26742023  0.09368180  0.75773810    -0.06200
H4423       H  0.27223491  0.05992583  0.74240221     0.06300
H4424       H  0.28070119  0.10281469  0.77488290     0.09700
Br4425     Br  0.27642473  0.08829055  0.71605881    -0.05900
Br4426     Br  0.20773715  0.07668440  0.73786175    -0.02800
Br4427     Br  0.29740229  0.05136365  0.75994909     0.00000
Br4428     Br  0.25581888  0.11119673  0.75622763    -0.04300
C4429       C  0.19131914  0.96235522  0.67953385    -0.11700
C4430       C  0.17796217  0.96912428  0.68368827     0.03700
C4431       C  0.17668503  0.98446515  0.68322378    -0.12300
C4432       C  0.18845104  0.99322282  0.67855919     0.18600
C4433       C  0.20157035  0.98649187  0.67400790    -0.09300
C4434       C  0.20286024  0.97122628  0.67438310    -0.02300
H4435       H  0.16654100  0.98961244  0.68671514     0.05100
C4436       C  0.18737688  0.00938133  0.67947030     0.20600
H4437       H  0.21323039  0.96633651  0.67119884     0.10300
C4438       C  0.18939112  0.01615268  0.69310684    -0.15700
C4439       C  0.19038879  0.03143389  0.69428495     0.03300
C4440       C  0.18926147  0.04029920  0.68152721    -0.11000
C4441       C  0.18661418  0.03341351  0.66794407    -0.01000
C4442       C  0.18566208  0.01810080  0.66686098    -0.06200
H4443       H  0.19077323  0.00944929  0.70283782     0.06300
H4444       H  0.18562547  0.03992467  0.65803896     0.09700
Br4445     Br  0.21839993  0.99775897  0.66816074    -0.05900
Br4446     Br  0.16104268  0.95821975  0.68997984    -0.02800
Br4447     Br  0.19426902  0.03904418  0.71360011     0.00000
Br4448     Br  0.18241552  0.00945398  0.64793471    -0.04300
C4449       C  0.16244856  0.11080993  0.68616912    -0.11700
C4450       C  0.16343058  0.12563793  0.69068620     0.03700
C4451       C  0.15086374  0.13441466  0.69077855    -0.12300
C4452       C  0.13716257  0.12873215  0.68665882     0.18600
C4453       C  0.13616683  0.11400468  0.68204914    -0.09300
C4454       C  0.14875566  0.10521577  0.68179210    -0.02300
H4455       H  0.15180265  0.14584492  0.69396960     0.05100
C4456       C  0.12428655  0.13863556  0.68678384     0.20600
H4457       H  0.14779462  0.09389083  0.67826696     0.10300
C4458       C  0.11705959  0.14182263  0.67356843    -0.15700
C4459       C  0.10597530  0.15244015  0.67298732     0.03300
C4460       C  0.10229953  0.16045396  0.68576894    -0.11000
C4461       C  0.10902530  0.15664991  0.69912570    -0.01000
C4462       C  0.11986789  0.14584058  0.69972721    -0.06200
H4463       H  0.12030400  0.13626277  0.66356252     0.06300
H4464       H  0.10622208  0.16244628  0.70912952     0.09700
Br4465     Br  0.11785980  0.10523953  0.67640978    -0.05900
Br4466     Br  0.18156474  0.13500476  0.69604488    -0.02800
Br4467     Br  0.09633994  0.15521311  0.65444442     0.00000
Br4468     Br  0.12838035  0.14142445  0.71850138    -0.04300
C4469       C  0.22183983  0.10539424  0.64923379    -0.11700
C4470       C  0.21910524  0.12019114  0.64537500     0.03700
C4471       C  0.22847003  0.12738475  0.63556937    -0.12300
C4472       C  0.24038963  0.12004850  0.62918840     0.18600
C4473       C  0.24261442  0.10508537  0.63229969    -0.09300
C4474       C  0.23340584  0.09789096  0.64228129    -0.02300
H4475       H  0.22656733  0.13886388  0.63304828     0.05100
C4476       C  0.25086364  0.12851126  0.62012060     0.20600
H4477       H  0.23555266  0.08648788  0.64488611     0.10300
C4478       C  0.26476069  0.13171104  0.62588080    -0.15700
C4479       C  0.27451607  0.14092203  0.61839455     0.03300
C4480       C  0.27044384  0.14699869  0.60467810    -0.11000
C4481       C  0.25657347  0.14351193  0.59884091    -0.01000
C4482       C  0.24680424  0.13442246  0.60645845    -0.06200
H4483       H  0.26782547  0.12742167  0.63654894     0.06300
H4484       H  0.25318146  0.14807311  0.58839984     0.09700
Br4485     Br  0.25799029  0.09406397  0.62304673    -0.05900
Br4486     Br  0.20259878  0.13116279  0.65262854    -0.02800
Br4487     Br  0.29255031  0.14562059  0.62829059     0.00000
Br4488     Br  0.22798839  0.13045489  0.59787249    -0.04300
C4489       C  0.80111316  0.03325087  0.67924615    -0.11700
C4490       C  0.79209026  0.02352445  0.67109271     0.03700
C4491       C  0.79422961  0.00835274  0.67216789    -0.12300
C4492       C  0.80522073  0.00251857  0.68116341     0.18600
C4493       C  0.81479393  0.01209434  0.68857663    -0.09300
C4494       C  0.81266656  0.02730060  0.68762847    -0.02300
H4495       H  0.78693517  0.00099897  0.66629314     0.05100
C4496       C  0.80579571  0.98643156  0.68326724     0.20600
H4497       H  0.81989170  0.03446535  0.69377526     0.10300
C4498       C  0.81052921  0.97742568  0.67170996    -0.15700
C4499       C  0.80979804  0.96210379  0.67285046     0.03300
C4500       C  0.80412682  0.95558913  0.68572470    -0.11000
C4501       C  0.79976844  0.96464694  0.69741934    -0.01000
C4502       C  0.80045027  0.97993572  0.69623676    -0.06200
H4503       H  0.81465675  0.98235702  0.66169893     0.06300
H4504       H  0.79528357  0.95983833  0.70732810     0.09700
Br4505     Br  0.83076401  0.00483674  0.70023047    -0.05900
Br4506     Br  0.77625106  0.02981240  0.65867057    -0.02800
Br4507     Br  0.81716693  0.95071349  0.65670568     0.00000
Br4508     Br  0.79304423  0.99149015  0.71224073    -0.04300
C4509       C  0.70181456  0.16686468  0.45929237    -0.11700
C4510       C  0.71386619  0.16665349  0.46911399     0.03700
C4511       C  0.71136835  0.16662484  0.48426301    -0.12300
C4512       C  0.69708567  0.16684324  0.48994770     0.18600
C4513       C  0.68508032  0.16685503  0.48027339    -0.09300
C4514       C  0.68749294  0.16683598  0.46510308    -0.02300
H4515       H  0.72065555  0.16675690  0.49170374     0.05100
C4516       C  0.69507834  0.16784003  0.50600899     0.20600
H4517       H  0.67808833  0.16694671  0.45782775     0.10300
C4518       C  0.69139149  0.18140534  0.51224663    -0.15700
C4519       C  0.69093420  0.18323733  0.52749645     0.03300
C4520       C  0.69411553  0.17122434  0.53683846    -0.11000
C4521       C  0.69744002  0.15753772  0.53046632    -0.01000
C4522       C  0.69795130  0.15579789  0.51520783    -0.06200
H4523       H  0.68937579  0.19077000  0.50518236     0.06300
H4524       H  0.69993113  0.14817550  0.53738332     0.09700
Br4525     Br  0.66524634  0.16685874  0.48733974    -0.05900
Br4526     Br  0.73402606  0.16724675  0.46290334    -0.02800
Br4527     Br  0.68721502  0.20276146  0.53457512     0.00000
Br4528     Br  0.70277712  0.13686005  0.50732459    -0.04300
C4529       C  0.72549639  0.14730735  0.60500823    -0.11700
C4530       C  0.73981102  0.15091978  0.60977388     0.03700
C4531       C  0.74778627  0.14095519  0.61831891    -0.12300
C4532       C  0.74187210  0.12726035  0.62215315     0.18600
C4533       C  0.72773903  0.12348693  0.61707001    -0.09300
C4534       C  0.71973115  0.13344442  0.60851766    -0.02300
H4535       H  0.75863235  0.14399171  0.62216505     0.05100
C4536       C  0.75021245  0.11757186  0.63226428     0.20600
H4537       H  0.70881451  0.13045024  0.60486668     0.10300
C4538       C  0.74450092  0.11482524  0.64628757    -0.15700
C4539       C  0.75227920  0.10644685  0.65653537     0.03300
C4540       C  0.76618863  0.10059868  0.65283745    -0.11000
C4541       C  0.77179443  0.10315935  0.63868683    -0.01000
C4542       C  0.76402376  0.11167790  0.62849275    -0.06200
H4543       H  0.73394873  0.11939474  0.64934792     0.06300
H4544       H  0.78244401  0.09880808  0.63563522     0.09700
Br4545     Br  0.71893510  0.10483784  0.62139544    -0.05900
Br4546     Br  0.74938333  0.16897643  0.60449918    -0.02800
Br4547     Br  0.74294271  0.10313766  0.67516658     0.00000
Br4548     Br  0.77273089  0.11491345  0.60958257    -0.04300
C4549       C  0.70922802  0.08262207  0.77548852    -0.11700
C4550       C  0.72428046  0.08370619  0.77913992     0.03700
C4551       C  0.73491379  0.08262353  0.76807769    -0.12300
C4552       C  0.73084311  0.08037872  0.75340506     0.18600
C4553       C  0.71590733  0.07912873  0.74978149    -0.09300
C4554       C  0.70527464  0.08026214  0.76075422    -0.02300
H4555       H  0.74643604  0.08345532  0.77092868     0.05100
C4556       C  0.74227179  0.07938793  0.74195666     0.20600
H4557       H  0.69381711  0.07948561  0.75766850     0.10300
C4558       C  0.74542422  0.06573319  0.73558109    -0.15700
C4559       C  0.75567939  0.06452316  0.72419043     0.03300
C4560       C  0.76311106  0.07718433  0.71912988    -0.11000
C4561       C  0.76009319  0.09078387  0.72579033    -0.01000
C4562       C  0.74969391  0.09197710  0.73700461    -0.06200
H4563       H  0.73974643  0.05599758  0.73939729     0.06300
H4564       H  0.76552284  0.10065703  0.72195415     0.09700
Br4565     Br  0.70949870  0.07629334  0.72991542    -0.05900
Br4566     Br  0.73117583  0.08600723  0.79893179    -0.02800
Br4567     Br  0.75921795  0.04524460  0.71640486     0.00000
Br4568     Br  0.74535187  0.11113444  0.74463843    -0.04300
C4569       C  0.67112609  0.04405929  0.81609749    -0.11700
C4570       C  0.65774649  0.03622128  0.81634195     0.03700
C4571       C  0.65789854  0.02091325  0.81770720    -0.12300
C4572       C  0.67118383  0.01312973  0.81838366     0.18600
C4573       C  0.68452545  0.02094711  0.81785594    -0.09300
C4574       C  0.68438054  0.03626120  0.81719179    -0.02300
H4575       H  0.64757803  0.01498229  0.81780343     0.05100
C4576       C  0.67085085  0.99687731  0.81802488     0.20600
H4577       H  0.69475745  0.04203273  0.81653192     0.10300
C4578       C  0.66430032  0.98992773  0.80596725    -0.15700
C4579       C  0.66443916  0.97465044  0.80455952     0.03300
C4580       C  0.67151866  0.96596104  0.81533620    -0.11000
C4581       C  0.67754360  0.97295358  0.82771731    -0.01000
C4582       C  0.67706131  0.98823563  0.82923708    -0.06200
H4583       H  0.65928144  0.99649177  0.79739432     0.06300
H4584       H  0.68269560  0.96651756  0.83628100     0.09700
Br4585     Br  0.70320401  0.01132149  0.81605850    -0.05900
Br4586     Br  0.63894014  0.04559683  0.81464234    -0.02800
Br4587     Br  0.65516747  0.96676760  0.78731563     0.00000
Br4588     Br  0.68460374  0.99670099  0.84700934    -0.04300
C4589       C  0.53930857  0.17845653  0.69508143    -0.11700
C4590       C  0.52990428  0.18971431  0.68991769     0.03700
C4591       C  0.51474148  0.18736599  0.68935896    -0.12300
C4592       C  0.50857906  0.17404839  0.69394320     0.18600
C4593       C  0.51788823  0.16258267  0.69846695    -0.09300
C4594       C  0.53308247  0.16486313  0.69906375    -0.02300
H4595       H  0.50762290  0.19622225  0.68583599     0.05100
C4596       C  0.49239201  0.17293201  0.69490812     0.20600
H4597       H  0.54003078  0.15598801  0.70288112     0.10300
C4598       C  0.48396375  0.17331686  0.68203769    -0.15700
C4599       C  0.46859745  0.17411733  0.68263700     0.03300
C4600       C  0.46137265  0.17454501  0.69640784    -0.11000
C4601       C  0.46992149  0.17367814  0.70924640    -0.01000
C4602       C  0.48524411  0.17311560  0.70859887    -0.06200
H4603       H  0.48940910  0.17333078  0.67145756     0.06300
H4604       H  0.46471882  0.17410299  0.71993253     0.09700
Br4605     Br  0.51031602  0.14369712  0.70398252    -0.05900
Br4606     Br  0.53660332  0.20889606  0.68423404    -0.02800
Br4607     Br  0.45839514  0.17469714  0.66420780     0.00000
Br4608     Br  0.49596571  0.17407080  0.72673012    -0.04300
C4609       C  0.60890173  0.18528422  0.66385072    -0.11700
C4610       C  0.60489030  0.17806829  0.65068836     0.03700
C4611       C  0.61465634  0.17782706  0.63875536    -0.12300
C4612       C  0.62846493  0.18462080  0.63966011     0.18600
C4613       C  0.63227984  0.19215511  0.65260056    -0.09300
C4614       C  0.62253750  0.19249070  0.66446754    -0.02300
H4615       H  0.61156590  0.17211434  0.62878566     0.05100
C4616       C  0.63916625  0.18303399  0.62746269     0.20600
H4617       H  0.62587442  0.19807923  0.67443066     0.10300
C4618       C  0.64301656  0.19528448  0.61894716    -0.15700
C4619       C  0.65420894  0.19442490  0.60838022     0.03300
C4620       C  0.66184450  0.18103347  0.60621884    -0.11000
C4621       C  0.65745464  0.16866470  0.61437243    -0.01000
C4622       C  0.64629409  0.16957669  0.62488565    -0.06200
H4623       H  0.63748885  0.20566611  0.62077242     0.06300
H4624       H  0.66308051  0.15827171  0.61296676     0.09700
Br4625     Br  0.65105197  0.20143640  0.65493433    -0.05900
Br4626     Br  0.58617645  0.16873292  0.64808570    -0.02800
Br4627     Br  0.65840927  0.21199728  0.59749081     0.00000
Br4628     Br  0.64185103  0.15234200  0.63616221    -0.04300
C4629       C  0.64937842  0.11211209  0.77711106    -0.11700
C4630       C  0.65546125  0.11836870  0.76430068     0.03700
C4631       C  0.64670278  0.12701637  0.75516038    -0.12300
C4632       C  0.63189132  0.12949189  0.75849738     0.18600
C4633       C  0.62569461  0.12289451  0.77102029    -0.09300
C4634       C  0.63444268  0.11425490  0.78021239    -0.02300
H4635       H  0.65144105  0.13180816  0.74535997     0.05100
C4636       C  0.62315127  0.13898482  0.74871134     0.20600
H4637       H  0.62963406  0.10945641  0.78998180     0.10300
C4638       C  0.61271014  0.13264163  0.73936527    -0.15700
C4639       C  0.60469610  0.14127387  0.72949564     0.03300
C4640       C  0.60717126  0.15659891  0.72886489    -0.11000
C4641       C  0.61760914  0.16287382  0.73835371    -0.01000
C4642       C  0.62555015  0.15422529  0.74820576    -0.06200
H4643       H  0.61093938  0.12087313  0.73962609     0.06300
H4644       H  0.61954258  0.17460803  0.73822078     0.09700
Br4645     Br  0.60550822  0.12579421  0.77624458    -0.05900
Br4646     Br  0.67534322  0.11476631  0.75819206    -0.02800
Br4647     Br  0.59116235  0.13124714  0.71681965     0.00000
Br4648     Br  0.63935889  0.16374019  0.76096984    -0.04300
C4649       C  0.95644014  0.18672671  0.67715872    -0.11700
C4650       C  0.96485059  0.19718362  0.66929401     0.03700
C4651       C  0.98013476  0.19578871  0.66870195    -0.12300
C4652       C  0.98729510  0.18401211  0.67554510     0.18600
C4653       C  0.97887412  0.17310550  0.68253746    -0.09300
C4654       C  0.96362367  0.17456389  0.68336512    -0.02300
H4655       H  0.98653808  0.20430235  0.66339839     0.05100
C4656       C  0.00348170  0.18437608  0.67693756     0.20600
H4657       H  0.95739198  0.16628714  0.68921312     0.10300
C4658       C  0.00953951  0.18615232  0.69096216    -0.15700
C4659       C  0.02462460  0.18801802  0.69290885     0.03300
C4660       C  0.03406808  0.18808735  0.68058264    -0.11000
C4661       C  0.02799164  0.18610137  0.66652224    -0.01000
C4662       C  0.01283257  0.18428907  0.66462900    -0.06200
H4663       H  0.00238188  0.18661184  0.70045835     0.06300
H4664       H  0.03503626  0.18613877  0.65692986     0.09700
Br4665     Br  0.98774300  0.15611859  0.69128558    -0.05900
Br4666     Br  0.95657421  0.21423373  0.66001155    -0.02800
Br4667     Br  0.03117701  0.19179599  0.71260762     0.00000
Br4668     Br  0.00539002  0.18174376  0.64508815    -0.04300
C4669       C  0.88377202  0.15942726  0.69136023    -0.11700
C4670       C  0.86904619  0.16186593  0.69567217     0.03700
C4671       C  0.85894516  0.15028665  0.69535631    -0.12300
C4672       C  0.86315999  0.13615044  0.69092582     0.18600
C4673       C  0.87785559  0.13365732  0.68678157    -0.09300
C4674       C  0.88796873  0.14524723  0.68694186    -0.02300
H4675       H  0.84760610  0.15240160  0.69827808     0.05100
C4676       C  0.85182811  0.12447483  0.68981894     0.20600
H4677       H  0.89919084  0.14313994  0.68361602     0.10300
C4678       C  0.84831817  0.11872280  0.67597538    -0.15700
C4679       C  0.83701960  0.10843277  0.67423393     0.03300
C4680       C  0.82884800  0.10369695  0.68659544    -0.11000
C4681       C  0.83261890  0.10931419  0.70050013    -0.01000
C4682       C  0.84390279  0.11962206  0.70217214    -0.06200
H4683       H  0.85423909  0.12251447  0.66637610     0.06300
H4684       H  0.82658863  0.10588956  0.71016194     0.09700
Br4685     Br  0.88472326  0.11455170  0.68114711    -0.05900
Br4686     Br  0.86158544  0.18086600  0.70104437    -0.02800
Br4687     Br  0.83331489  0.10180546  0.65455651     0.00000
Br4688     Br  0.84810300  0.12668102  0.72158219    -0.04300
C4689       C  0.78796234  0.26443786  0.58469457    -0.11700
C4690       C  0.78974330  0.24981743  0.58955985     0.03700
C4691       C  0.77797304  0.23998100  0.58874513    -0.12300
C4692       C  0.76435281  0.24436387  0.58306080     0.18600
C4693       C  0.76246799  0.25901240  0.57846308    -0.09300
C4694       C  0.77419933  0.26892358  0.57938406    -0.02300
H4695       H  0.77944471  0.22880944  0.59256842     0.05100
C4696       C  0.75234043  0.23342481  0.58203240     0.20600
H4697       H  0.77265094  0.28010271  0.57560319     0.10300
C4698       C  0.73979327  0.23499857  0.59082625    -0.15700
C4699       C  0.72854592  0.22448932  0.59055841     0.03300
C4700       C  0.72991064  0.21190649  0.58151624    -0.11000
C4701       C  0.74239762  0.21057071  0.57252971    -0.01000
C4702       C  0.75348288  0.22117764  0.57267949    -0.06200
H4703       H  0.73878008  0.24444745  0.59799170     0.06300
H4704       H  0.74365970  0.20114018  0.56538574     0.09700
Br4705     Br  0.74432186  0.26579021  0.57020819    -0.05900
Br4706     Br  0.80767130  0.24278776  0.59817265    -0.02800
Br4707     Br  0.71160559  0.22835483  0.60252290     0.00000
Br4708     Br  0.76978971  0.21863984  0.55957465    -0.04300
C4709       C  0.83277387  0.29776346  0.46412341    -0.11700
C4710       C  0.83303450  0.28571071  0.47388614     0.03700
C4711       C  0.83324933  0.28814567  0.48902356    -0.12300
C4712       C  0.83307072  0.30241381  0.49473950     0.18600
C4713       C  0.83306336  0.31447104  0.48509205    -0.09300
C4714       C  0.83283060  0.31208802  0.46989253    -0.02300
H4715       H  0.83303826  0.27882526  0.49642571     0.05100
C4716       C  0.83189545  0.30421200  0.51080589     0.20600
H4717       H  0.83255558  0.32144827  0.46256528     0.10300
C4718       C  0.84442403  0.30249405  0.51953197    -0.15700
C4719       C  0.84335999  0.30193563  0.53486933     0.03300
C4720       C  0.82940790  0.30282830  0.54172052    -0.11000
C4721       C  0.81696954  0.30516546  0.53285120    -0.01000
C4722       C  0.81812964  0.30587630  0.51756339    -0.06200
H4723       H  0.85505638  0.30119192  0.51434365     0.06300
H4724       H  0.80617426  0.30600871  0.53776694     0.09700
Br4725     Br  0.83312584  0.33427415  0.49224203    -0.05900
Br4726     Br  0.83156320  0.26567812  0.46745119    -0.02800
Br4727     Br  0.86141924  0.29951216  0.54547589     0.00000
Br4728     Br  0.80051751  0.30829440  0.50625753    -0.04300
C4729       C  0.85082696  0.26765552  0.61056841    -0.11700
C4730       C  0.86353948  0.26079640  0.60475538     0.03700
C4731       C  0.87181377  0.25126944  0.61354969    -0.12300
C4732       C  0.86776641  0.24845717  0.62810293     0.18600
C4733       C  0.85531903  0.25538173  0.63400289    -0.09300
C4734       C  0.84694696  0.26480184  0.62525687    -0.02300
H4735       H  0.88152491  0.24607362  0.60904109     0.05100
C4736       C  0.87687119  0.23860123  0.63716124     0.20600
H4737       H  0.83731759  0.26990439  0.63002305     0.10300
C4738       C  0.88943316  0.24421908  0.64400943    -0.15700
C4739       C  0.89781005  0.23549449  0.65347880     0.03300
C4740       C  0.89370896  0.22070641  0.65600555    -0.11000
C4741       C  0.88133447  0.21504558  0.64871655    -0.01000
C4742       C  0.87286869  0.22388257  0.63948710    -0.06200
H4743       H  0.89253833  0.25557236  0.64222416     0.06300
H4744       H  0.87789841  0.20379901  0.65056328     0.09700
Br4745     Br  0.84955085  0.25246811  0.65406098    -0.05900
Br4746     Br  0.87065467  0.26411302  0.58518556    -0.02800
Br4747     Br  0.91454522  0.24463657  0.66250973     0.00000
Br4748     Br  0.85565927  0.21553717  0.63067978    -0.04300
C4749       C  0.67563628  0.20346073  0.96389118    -0.11700
C4750       C  0.66229885  0.20027694  0.97111021     0.03700
C4751       C  0.66180842  0.19994714  0.98645683    -0.12300
C4752       C  0.67440705  0.20281949  0.99481978     0.18600
C4753       C  0.68778263  0.20573858  0.98762631    -0.09300
C4754       C  0.68831412  0.20595734  0.97229962    -0.02300
H4755       H  0.65154937  0.19737045  0.99191885     0.05100
C4756       C  0.67349309  0.20235404  0.01101066     0.20600
H4757       H  0.69860983  0.20853548  0.96693971     0.10300
C4758       C  0.68141447  0.19159794  0.01863352    -0.15700
C4759       C  0.68144618  0.19118688  0.03397115     0.03300
C4760       C  0.67311415  0.20156224  0.04198964    -0.11000
C4761       C  0.66473621  0.21197320  0.03425552    -0.01000
C4762       C  0.66497364  0.21252681  0.01893106    -0.06200
H4763       H  0.68783101  0.18360842  0.01257912     0.06300
H4764       H  0.65839138  0.22013328  0.04014686     0.09700
Br4765     Br  0.70546532  0.21018672  0.99821489    -0.05900
Br4766     Br  0.64461675  0.19551035  0.96070390    -0.02800
Br4767     Br  0.69317346  0.17617300  0.04300679     0.00000
Br4768     Br  0.65429034  0.22800922  0.00942708    -0.04300
C4769       C  0.67649897  0.17332855  0.89311030    -0.11700
C4770       C  0.66751219  0.16102181  0.89624883     0.03700
C4771       C  0.66688940  0.14927253  0.88632291    -0.12300
C4772       C  0.67487804  0.14962710  0.87318366     0.18600
C4773       C  0.68325206  0.16211629  0.86972343    -0.09300
C4774       C  0.68419489  0.17367980  0.87972428    -0.02300
H4775       H  0.66018405  0.13978098  0.88887916     0.05100
C4776       C  0.67425858  0.13703722  0.86300916     0.20600
H4777       H  0.69079830  0.18314862  0.87683289     0.10300
C4778       C  0.66145595  0.13458996  0.85485250    -0.15700
C4779       C  0.66108017  0.12384399  0.84387864     0.03300
C4780       C  0.67370448  0.11526453  0.84106062    -0.11000
C4781       C  0.68633060  0.11742983  0.84960852    -0.01000
C4782       C  0.68665602  0.12813969  0.86057466    -0.06200
H4783       H  0.65192471  0.14149676  0.85661255     0.06300
H4784       H  0.69606914  0.11088515  0.84762600     0.09700
Br4785     Br  0.69304636  0.16414094  0.85115030    -0.05900
Br4786     Br  0.65586815  0.15932996  0.91374608    -0.02800
Br4787     Br  0.64354712  0.12254978  0.83221752     0.00000
Br4788     Br  0.70436273  0.13043077  0.87176170    -0.04300
C4789       C  0.57715511  0.27905630  0.78256558    -0.11700
C4790       C  0.58747967  0.28010979  0.77098741     0.03700
C4791       C  0.58732502  0.26972139  0.75961083    -0.12300
C4792       C  0.57699795  0.25829186  0.75946133     0.18600
C4793       C  0.56620480  0.25776709  0.77051679    -0.09300
C4794       C  0.56637173  0.26803772  0.78190015    -0.02300
H4795       H  0.59575543  0.27014143  0.75122206     0.05100
C4796       C  0.57874892  0.24591989  0.74902460     0.20600
H4797       H  0.55819840  0.26714749  0.79049169     0.10300
C4798       C  0.58212981  0.23204774  0.75473923    -0.15700
C4799       C  0.58324363  0.21973675  0.74567213     0.03300
C4800       C  0.58114651  0.22118784  0.73033470    -0.11000
C4801       C  0.57830137  0.23524690  0.72455778    -0.01000
C4802       C  0.57708332  0.24755041  0.73374775    -0.06200
H4803       H  0.58376579  0.23076812  0.76645295     0.06300
H4804       H  0.57675585  0.23666590  0.71285284     0.09700
Br4805     Br  0.55120045  0.24294530  0.77076025    -0.05900
Br4806     Br  0.60286006  0.29453251  0.77055066    -0.02800
Br4807     Br  0.58791412  0.20152462  0.75526477     0.00000
Br4808     Br  0.57256089  0.26615863  0.72499323    -0.04300
C4809       C  0.53493694  0.31106879  0.82549426    -0.11700
C4810       C  0.52587239  0.31461500  0.81337370     0.03700
C4811       C  0.51060825  0.31480999  0.81502718    -0.12300
C4812       C  0.50402020  0.31163650  0.82855585     0.18600
C4813       C  0.51299952  0.30854124  0.84075168    -0.09300
C4814       C  0.52827868  0.30824247  0.83913988    -0.02300
H4815       H  0.50377703  0.31692684  0.80552247     0.05100
C4816       C  0.48785668  0.30991391  0.82914872     0.20600
H4817       H  0.53497571  0.30559369  0.84860499     0.10300
C4818       C  0.48209139  0.29581178  0.83130824    -0.15700
C4819       C  0.46701186  0.29321411  0.83040318     0.03300
C4820       C  0.45729507  0.30494106  0.82752672    -0.11000
C4821       C  0.46304592  0.31907387  0.82528004    -0.01000
C4822       C  0.47821070  0.32161628  0.82602899    -0.06200
H4823       H  0.48945045  0.28663837  0.83314608     0.06300
H4824       H  0.45573535  0.32815419  0.82292822     0.09700
Br4825     Br  0.50492953  0.30468836  0.85982702    -0.05900
Br4826     Br  0.53323668  0.31823215  0.79394704    -0.02800
Br4827     Br  0.46060916  0.27314242  0.83161934     0.00000
Br4828     Br  0.48524006  0.34119787  0.82271455    -0.04300
C4829       C  0.60189910  0.27816649  0.85126786    -0.11700
C4830       C  0.60416211  0.26295164  0.84904920     0.03700
C4831       C  0.61278953  0.25494392  0.85892632    -0.12300
C4832       C  0.61934622  0.26178780  0.87104360     0.18600
C4833       C  0.61683646  0.27685033  0.87348763    -0.09300
C4834       C  0.60807103  0.28486915  0.86372411    -0.02300
H4835       H  0.61467369  0.24335743  0.85696199     0.05100
C4836       C  0.62967758  0.25331497  0.88030170     0.20600
H4837       H  0.60645459  0.29650365  0.86564824     0.10300
C4838       C  0.64469966  0.25660530  0.87954120    -0.15700
C4839       C  0.65495439  0.24863859  0.88771794     0.03300
C4840       C  0.65021560  0.23700289  0.89679063    -0.11000
C4841       C  0.63514887  0.23388945  0.89775919    -0.01000
C4842       C  0.62490500  0.24185914  0.88953514    -0.06200
H4843       H  0.64846171  0.26544758  0.87252286     0.06300
H4844       H  0.63134100  0.22501158  0.90471398     0.09700
Br4845     Br  0.62530179  0.28692037  0.88994852    -0.05900
Br4846     Br  0.59560867  0.25230304  0.83297106    -0.02800
Br4847     Br  0.67511367  0.25475267  0.88665113     0.00000
Br4848     Br  0.60455702  0.23680067  0.89142647    -0.04300
C4849       C  0.77472679  0.28856786  0.92703810    -0.11700
C4850       C  0.77641746  0.27587501  0.91817738     0.03700
C4851       C  0.76520864  0.26533667  0.91768090    -0.12300
C4852       C  0.75239988  0.26703741  0.92602301     0.18600
C4853       C  0.75118422  0.27905527  0.93564381    -0.09300
C4854       C  0.76217824  0.28973851  0.93596297    -0.02300
H4855       H  0.76632900  0.25592836  0.91047251     0.05100
C4856       C  0.74016330  0.25653606  0.92415928     0.20600
H4857       H  0.76076333  0.29912921  0.94312039     0.10300
C4858       C  0.74153364  0.24213360  0.92945348    -0.15700
C4859       C  0.72981301  0.23220550  0.92838649     0.03300
C4860       C  0.71645193  0.23675467  0.92198067    -0.11000
C4861       C  0.71527683  0.25106090  0.91640708    -0.01000
C4862       C  0.72702189  0.26085485  0.91727019    -0.06200
H4863       H  0.75164230  0.23871556  0.93469943     0.06300
H4864       H  0.70518153  0.25462122  0.91122264     0.09700
Br4865     Br  0.73472768  0.28129497  0.94862175    -0.05900
Br4866     Br  0.79336976  0.27221832  0.90616971    -0.02800
Br4867     Br  0.73236589  0.21303339  0.93676382     0.00000
Br4868     Br  0.72467347  0.27989963  0.90855328    -0.04300
C4869       C  0.80902040  0.33408360  0.96865135    -0.11700
C4870       C  0.82138551  0.32919554  0.97668466     0.03700
C4871       C  0.82137998  0.33004579  0.99203438    -0.12300
C4872       C  0.80921529  0.33557596  0.99966333     0.18600
C4873       C  0.79716968  0.34104968  0.99171558    -0.09300
C4874       C  0.79721296  0.34041698  0.97636379    -0.02300
H4875       H  0.83073258  0.32590343  0.99810661     0.05100
C4876       C  0.80876374  0.33438754  0.01585270     0.20600
H4877       H  0.78758659  0.34420254  0.97049154     0.10300
C4878       C  0.80958989  0.34707173  0.02457511    -0.15700
C4879       C  0.80833221  0.34619556  0.03989495     0.03300
C4880       C  0.80646327  0.33237221  0.04667867    -0.11000
C4881       C  0.80613748  0.31969695  0.03790712    -0.01000
C4882       C  0.80704852  0.32062252  0.02265220    -0.06200
H4883       H  0.81097066  0.35771162  0.01940966     0.06300
H4884       H  0.80445718  0.30902227  0.04287772     0.09700
Br4885     Br  0.77986918  0.34821944  0.00139075    -0.05900
Br4886     Br  0.83855991  0.32101949  0.96759172    -0.02800
Br4887     Br  0.80945676  0.36416093  0.05088183     0.00000
Br4888     Br  0.80466916  0.30286552  0.01154609    -0.04300
C4889       C  0.69598271  0.45838617  0.83314884    -0.11700
C4890       C  0.70527458  0.46598006  0.84300314     0.03700
C4891       C  0.70397598  0.48122727  0.84454171    -0.12300
C4892       C  0.69306082  0.48903651  0.83698091     0.18600
C4893       C  0.68276818  0.48119271  0.82849818    -0.09300
C4894       C  0.68438333  0.46605026  0.82649691    -0.02300
H4895       H  0.71178078  0.48706025  0.85137192     0.05100
C4896       C  0.69353957  0.50533444  0.83666041     0.20600
H4897       H  0.67678622  0.46035635  0.81933703     0.10300
C4898       C  0.69560149  0.51231381  0.82307900    -0.15700
C4899       C  0.69655871  0.52759123  0.82204376     0.03300
C4900       C  0.69571888  0.53626878  0.83486312    -0.11000
C4901       C  0.69382348  0.52929864  0.84849392    -0.01000
C4902       C  0.69263329  0.51397817  0.84947297    -0.06200
H4903       H  0.69667755  0.50577862  0.81318936     0.06300
H4904       H  0.69316589  0.53581099  0.85843364     0.09700
Br4905     Br  0.66631248  0.49072027  0.81943642    -0.05900
Br4906     Br  0.71960825  0.45620266  0.85501758    -0.02800
Br4907     Br  0.70010907  0.53572595  0.80290341     0.00000
Br4908     Br  0.68932670  0.50548892  0.86845708    -0.04300
C4909       C  0.66521643  0.39160485  0.82253935    -0.11700
C4910       C  0.66192280  0.38171730  0.83411154     0.03700
C4911       C  0.64910476  0.37329662  0.83353844    -0.12300
C4912       C  0.63952980  0.37431203  0.82158439     0.18600
C4913       C  0.64245664  0.38443992  0.81032906    -0.09300
C4914       C  0.65516829  0.39301869  0.81089635    -0.02300
H4915       H  0.64692715  0.36537719  0.84215067     0.05100
C4916       C  0.62774245  0.36332064  0.82018155     0.20600
H4917       H  0.65735390  0.40056993  0.80197167     0.10300
C4918       C  0.61479244  0.36475952  0.82835585    -0.15700
C4919       C  0.60406794  0.35369956  0.82813215     0.03300
C4920       C  0.60632954  0.34089879  0.81954933    -0.11000
C4921       C  0.61925031  0.33979281  0.81116081    -0.01000
C4922       C  0.62993219  0.35073906  0.81155050    -0.06200
H4923       H  0.61317506  0.37438429  0.83516638     0.06300
H4924       H  0.62134776  0.33011472  0.80456912     0.09700
Br4925     Br  0.62969173  0.38643252  0.79370780    -0.05900
Br4926     Br  0.67458568  0.37826411  0.85064015    -0.02800
Br4927     Br  0.58705955  0.35672649  0.84022489     0.00000
Br4928     Br  0.64784940  0.34755570  0.80089933    -0.04300
C4929       C  0.77754437  0.35077691  0.89626761    -0.11700
C4930       C  0.76851335  0.34470058  0.88513600     0.03700
C4931       C  0.75989653  0.35392630  0.87642181    -0.12300
C4932       C  0.76018495  0.36918371  0.87830414     0.18600
C4933       C  0.76919547  0.37530223  0.88923352    -0.09300
C4934       C  0.77774195  0.36612745  0.89810125    -0.02300
H4935       H  0.75294300  0.34916658  0.86801458     0.05100
C4936       C  0.75102461  0.37844685  0.86864821     0.20600
H4937       H  0.78461016  0.37107658  0.90646202     0.10300
C4938       C  0.73890321  0.38588671  0.87453760    -0.15700
C4939       C  0.72947447  0.39400016  0.86551563     0.03300
C4940       C  0.73214183  0.39468103  0.85022190    -0.11000
C4941       C  0.74446472  0.38739524  0.84445643    -0.01000
C4942       C  0.75384069  0.37933601  0.85349795    -0.06200
H4943       H  0.73660412  0.38511503  0.88618573     0.06300
H4944       H  0.74680221  0.38786330  0.83280451     0.09700
Br4945     Br  0.77053569  0.39613636  0.89209963    -0.05900
Br4946     Br  0.76724649  0.32405075  0.88090047    -0.02800
Br4947     Br  0.71284781  0.40308107  0.87480754     0.00000
Br4948     Br  0.77042314  0.36979996  0.84465155    -0.04300
C4949       C  0.91799399  0.28029715  0.77448961    -0.11700
C4950       C  0.92029758  0.28176471  0.75919801     0.03700
C4951       C  0.92028661  0.26929267  0.75024058    -0.12300
C4952       C  0.91796592  0.25531288  0.75619844     0.18600
C4953       C  0.91586590  0.25375922  0.77139030    -0.09300
C4954       C  0.91583806  0.26620497  0.78041208    -0.02300
H4955       H  0.92169013  0.27052859  0.73849345     0.05100
C4956       C  0.91675463  0.24265983  0.74618444     0.20600
H4957       H  0.91405187  0.26486312  0.79210120     0.10300
C4958       C  0.92925127  0.23436782  0.74278459    -0.15700
C4959       C  0.92863679  0.22315187  0.73226266     0.03300
C4960       C  0.91525173  0.22019581  0.72492505    -0.11000
C4961       C  0.90266469  0.22821110  0.72887457    -0.01000
C4962       C  0.90333891  0.23935063  0.73936339    -0.06200
H4963       H  0.93961084  0.23691678  0.74804849     0.06300
H4964       H  0.89227288  0.22609607  0.72348537     0.09700
Br4965     Br  0.91257972  0.23487191  0.78009293    -0.05900
Br4966     Br  0.92224764  0.30044825  0.74958550    -0.02800
Br4967     Br  0.94669357  0.21318223  0.72785520     0.00000
Br4968     Br  0.88576403  0.25013455  0.74368252    -0.04300
C4969       C  0.95863263  0.32525199  0.81169858    -0.11700
C4970       C  0.96597737  0.33826837  0.80746978     0.03700
C4971       C  0.98128537  0.33905840  0.80841056    -0.12300
C4972       C  0.98951609  0.32709869  0.81351153     0.18600
C4973       C  0.98217209  0.31458613  0.81882894    -0.09300
C4974       C  0.96686254  0.31375556  0.81791640    -0.02300
H4975       H  0.98686906  0.34886502  0.80460728     0.05100
C4976       C  0.00567107  0.32729448  0.81188093     0.20600
H4977       H  0.96147381  0.30375175  0.82139836     0.10300
C4978       C  0.01469974  0.32706816  0.82434864    -0.15700
C4979       C  0.02999945  0.32622478  0.82299132     0.03300
C4980       C  0.03649469  0.32598232  0.80888457    -0.11000
C4981       C  0.02738692  0.32655458  0.79646417    -0.01000
C4982       C  0.01214472  0.32703833  0.79784766    -0.06200
H4983       H  0.00979039  0.32727930  0.83518071     0.06300
H4984       H  0.03211271  0.32615717  0.78555204     0.09700
Br4985     Br  0.99263380  0.29786077  0.82625996    -0.05900
Br4986     Br  0.95593740  0.35533552  0.80020681    -0.02800
Br4987     Br  0.04122495  0.32558216  0.84082268     0.00000
Br4988     Br  0.00065137  0.32633794  0.78018790    -0.04300
C4989       C  0.89017782  0.32025406  0.83940383    -0.11700
C4990       C  0.87729255  0.32886710  0.83975100     0.03700
C4991       C  0.86884812  0.32952353  0.85255482    -0.12300
C4992       C  0.87298460  0.32182259  0.86523139     0.18600
C4993       C  0.88589317  0.31328221  0.86494485    -0.09300
C4994       C  0.89431724  0.31250299  0.85207928    -0.02300
H4995       H  0.85873650  0.33579830  0.85250333     0.05100
C4996       C  0.86293698  0.32193940  0.87807201     0.20600
H4997       H  0.90421207  0.30590315  0.85201807     0.10300
C4998       C  0.85610448  0.30881408  0.88232552    -0.15700
C4999       C  0.84507522  0.30867917  0.89303276     0.03300
C5000       C  0.84048664  0.32201895  0.89961420    -0.11000
C5001       C  0.84780033  0.33506147  0.89573270    -0.01000
C5002       C  0.85892607  0.33510598  0.88513415    -0.06200
H5003       H  0.85900252  0.29863596  0.87686835     0.06300
H5004       H  0.84464101  0.34538695  0.90071722     0.09700
Br5005     Br  0.89262230  0.30277314  0.88191396    -0.05900
Br5006     Br  0.86988967  0.33898158  0.82279447    -0.02800
Br5007     Br  0.83637081  0.28992335  0.89726397     0.00000
Br5008     Br  0.86826972  0.35345970  0.88066050    -0.04300
C5009       C  0.78489748  0.41628738  0.72862654    -0.11700
C5010       C  0.77061801  0.41185260  0.72430504     0.03700
C5011       C  0.75913201  0.41196443  0.73453750    -0.12300
C5012       C  0.76155256  0.41632034  0.74907427     0.18600
C5013       C  0.77573407  0.42050166  0.75347911    -0.09300
C5014       C  0.78719327  0.42059815  0.74328578    -0.02300
H5015       H  0.74824516  0.40853994  0.73116652     0.05100
C5016       C  0.74933639  0.41591561  0.75971950     0.20600
H5017       H  0.79803077  0.42384085  0.74696621     0.10300
C5018       C  0.74533423  0.40245573  0.76597771    -0.15700
C5019       C  0.73498460  0.40180300  0.77732244     0.03300
C5020       C  0.72825004  0.41486331  0.78241648    -0.11000
C5021       C  0.73191075  0.42825445  0.77565728    -0.01000
C5022       C  0.74236877  0.42885844  0.76443588    -0.06200
H5023       H  0.75078386  0.39247803  0.76245303     0.06300
H5024       H  0.72690936  0.43838160  0.77937823     0.09700
Br5025     Br  0.78007146  0.42553879  0.77347934    -0.05900
Br5026     Br  0.76584409  0.40527829  0.70483812    -0.02800
Br5027     Br  0.73186253  0.38293351  0.78622508     0.00000
Br5028     Br  0.74718983  0.44764368  0.75621188    -0.04300
C5029       C  0.82594265  0.46029785  0.69411541    -0.11700
C5030       C  0.83510047  0.46924254  0.70296635     0.03700
C5031       C  0.83387956  0.48457891  0.70225796    -0.12300
C5032       C  0.82401037  0.49133028  0.69257244     0.18600
C5033       C  0.81589040  0.48251098  0.68282245    -0.09300
C5034       C  0.81668260  0.46719026  0.68383916    -0.02300
H5035       H  0.84050818  0.49129693  0.70950694     0.05100
C5036       C  0.82213045  0.50751870  0.69309687     0.20600
H5037       H  0.80990873  0.46064681  0.67658182     0.10300
C5038       C  0.83393302  0.51672302  0.68938194    -0.15700
C5039       C  0.83267826  0.53205660  0.69041740     0.03300
C5040       C  0.81936076  0.53841062  0.69521764    -0.11000
C5041       C  0.80755512  0.52915276  0.69874917    -0.01000
C5042       C  0.80888626  0.51389299  0.69794200    -0.06200
H5043       H  0.84418998  0.51193614  0.68568977     0.06300
H5044       H  0.79735773  0.53379418  0.70275491     0.09700
Br5045     Br  0.80393210  0.49090798  0.66764691    -0.05900
Br5046     Br  0.84941894  0.46152188  0.71637006    -0.02800
Br5047     Br  0.84928632  0.54364098  0.68460142     0.00000
Br5048     Br  0.79259880  0.50232133  0.70466008    -0.04300
C5049       C  0.82039218  0.33343153  0.60942718    -0.11700
C5050       C  0.80837784  0.33696503  0.61868593     0.03700
C5051       C  0.80904513  0.34935099  0.62780318    -0.12300
C5052       C  0.82132308  0.35864519  0.62778884     0.18600
C5053       C  0.83293093  0.35563349  0.61802473    -0.09300
C5054       C  0.83242894  0.34313445  0.60903392    -0.02300
H5055       H  0.80003692  0.35154400  0.63526607     0.05100
C5056       C  0.82234539  0.37052285  0.63897580     0.20600
H5057       H  0.84164985  0.34089433  0.60186733     0.10300
C5058       C  0.83338244  0.36969765  0.64969766    -0.15700
C5059       C  0.83402535  0.37981138  0.66125800     0.03300
C5060       C  0.82324435  0.39088449  0.66246730    -0.11000
C5061       C  0.81233599  0.39187998  0.65161816    -0.01000
C5062       C  0.81193702  0.38195885  0.63984060    -0.06200
H5063       H  0.84133371  0.36085235  0.64929601     0.06300
H5064       H  0.80405402  0.40039281  0.65232983     0.09700
Br5065     Br  0.84962391  0.36840066  0.61648458    -0.05900
Br5066     Br  0.79073498  0.32544113  0.61983146    -0.02800
Br5067     Br  0.84912884  0.37706053  0.67571657     0.00000
Br5068     Br  0.79720694  0.38468211  0.62504956    -0.04300
C5069       C  0.89056183  0.34266967  0.77271000    -0.11700
C5070       C  0.88971961  0.35814461  0.77375573     0.03700
C5071       C  0.88072787  0.36601251  0.76408617    -0.12300
C5072       C  0.87272463  0.35878689  0.75308067     0.18600
C5073       C  0.87401173  0.34345944  0.75160219    -0.09300
C5074       C  0.88265323  0.33552585  0.76152595    -0.02300
H5075       H  0.87999492  0.37751012  0.76510706     0.05100
C5076       C  0.86361212  0.36769690  0.74300061     0.20600
H5077       H  0.88343798  0.32360239  0.76027668     0.10300
C5078       C  0.87059163  0.37760108  0.73353012    -0.15700
C5079       C  0.86249673  0.38709633  0.72458901     0.03300
C5080       C  0.84699616  0.38688095  0.72513756    -0.11000
C5081       C  0.84002001  0.37668589  0.73441718    -0.01000
C5082       C  0.84816028  0.36720933  0.74336779    -0.06200
H5083       H  0.88256495  0.37799026  0.73314163     0.06300
H5084       H  0.82812369  0.37632834  0.73502102     0.09700
Br5085     Br  0.86488230  0.33298650  0.73574462    -0.05900
Br5086     Br  0.90015325  0.36933651  0.78824791    -0.02800
Br5087     Br  0.87337312  0.39958785  0.71155116     0.00000
Br5088     Br  0.83769154  0.35443191  0.75646555    -0.04300
loop_ 
_geom_bond_atom_site_label_1 
_geom_bond_atom_site_label_2 
_geom_bond_distance 
_geom_bond_site_symmetry_2 
_ccdc_geom_bond_type 
In1           O3   2.242       .  S
In1           O4   2.246       .  S
In1          O12   2.252       .  S
In1           O6   2.252       .  S
In1           O8   2.240       .  S
In1           O9   2.261       .  S
In1          O10   2.243       .  S
In1          O13   2.253       .  S
C2            O8   1.260       .  A
C2           O10   1.261       .  A
C2         C5009   1.485       .  S
O3           C11   1.261       .  A
O4           C11   1.263       .  A
C5           O12   1.260       .  A
C5            O6   1.260       .  A
C5         C5060   1.480       .  S
C7            O9   1.259       .  A
C7           O13   1.260       .  A
C7         C5029   1.490       .  S
C11        C5080   1.482       .  S
In14         O16   2.242       .  S
In14         O17   2.248       .  S
In14         O25   2.246       .  S
In14         O19   2.264       .  S
In14         O21   2.255       .  S
In14         O22   2.242       .  S
In14         O23   2.239       .  S
In14         O26   2.257       .  S
C15          O21   1.263       .  A
C15          O23   1.259       .  A
C15        C4949   1.479       .  S
O16          C24   1.263       .  A
O17          C24   1.263       .  A
C18          O25   1.257       .  A
C18          O19   1.261       .  A
C18        C4989   1.480       .  S
C20          O22   1.258       .  A
C20          O26   1.259       .  A
C20        C4969   1.483       .  S
C24        C5069   1.484       .  S
In27         O29   2.256       .  S
In27         O30   2.228       .  S
In27         O38   2.232       .  S
In27         O32   2.253       .  S
In27         O34   2.251       .  S
In27         O35   2.243       .  S
In27         O36   2.247       .  S
In27         O39   2.239       .  S
C28          O34   1.259       .  A
C28          O36   1.260       .  A
C28        C5020   1.482       .  S
O29          C37   1.262       .  A
O30          C37   1.259       .  A
C31          O38   1.256       .  A
C31          O32   1.262       .  A
C31        C4909   1.483       .  S
C33          O35   1.259       .  A
C33          O39   1.260       .  A
C33        C4940   1.480       .  S
C37        C4889   1.481       .  S
In40         O42   2.253       .  S
In40         O43   2.256       .  S
In40         O51   2.252       .  S
In40         O45   2.243       .  S
In40         O47   2.250       .  S
In40         O48   2.258       .  S
In40         O49   2.243       .  S
In40         O52   2.236       .  S
C41          O47   1.259       .  A
C41          O49   1.261       .  A
C41        C4849   1.485       .  S
O42          C50   1.259       .  A
O43          C50   1.259       .  A
C44          O51   1.262       .  A
C44          O45   1.259       .  A
C44        C5000   1.487       .  S
C46          O48   1.262       .  A
C46          O52   1.257       .  A
C46        C4929   1.485       .  S
C50        C4869   1.486       .  S
In53         O55   2.243       .  S
In53         O56   2.272       .  S
In53         O64   2.234       .  S
In53         O58   2.262       .  S
In53         O60   2.251       .  S
In53         O61   2.248       .  S
In53         O62   2.235       .  S
In53         O65   2.244       .  S
C54          O60   1.262       .  A
C54          O62   1.262       .  A
C54        C4789   1.484       .  S
O55          C63   1.256       .  A
O56          C63   1.260       .  A
C57          O64   1.259       .  A
C57          O58   1.259       .  A
C57        C4920   1.485       .  S
C59          O61   1.262       .  A
C59          O65   1.260       .  A
C59        C4809   1.485       .  S
C63        C4829   1.483       .  S
In66         O68   2.236       .  S
In66         O69   2.251       .  S
In66         O77   2.258       .  S
In66         O71   2.241       .  S
In66         O73   2.250       .  S
In66         O74   2.246       .  S
In66         O75   2.230       .  S
In66         O78   2.244       .  S
C67          O73   1.262       .  A
C67          O75   1.261       .  A
C67        C4860   1.475       .  S
O68          C76   1.259       .  A
O69          C76   1.261       .  A
C70          O77   1.257       .  A
C70          O71   1.258       .  A
C70        C4769   1.483       .  S
C72          O74   1.260       .  A
C72          O78   1.260       .  A
C72        C4749   1.476       .  S
C76        C4840   1.476       .  S
In79         O81   2.251       .  S
In79         O82   2.252       .  S
In79         O90   2.270       .  S
In79         O84   2.246       .  S
In79         O86   2.258       .  S
In79         O87   2.253       .  S
In79         O88   2.241       .  S
In79         O91   2.249       .  S
C80          O86   1.262       .  A
C80          O88   1.259       .  A
C80        C4689   1.479       .  S
O81          C89   1.260       .  A
O82          C89   1.259       .  A
C83          O90   1.262       .  A
C83          O84   1.258       .  A
C83        C5049   1.493       .  S
C85          O87   1.260       .  A
C85          O91   1.261       .  A
C85        C4729   1.487       .  S
C89        C4720   1.488       .  S
In92         O94   2.246       .  S
In92         O95   2.240       .  S
In92        O103   2.258       .  S
In92         O97   2.243       .  S
In92         O99   2.231       .  S
In92        O100   2.243       .  S
In92        O101   2.257       .  S
In92        O104   2.237       .  S
C93          O99   1.259       .  A
C93         O101   1.259       .  A
C93        C4960   1.481       .  S
O94         C102   1.262       .  A
O95         C102   1.258       .  A
C96         O103   1.261       .  A
C96          O97   1.258       .  A
C96        C4669   1.483       .  S
C98         O100   1.262       .  A
C98         O104   1.259       .  A
C98        C4740   1.480       .  S
C102       C4649   1.482       .  S
In105       O107   2.245       .  S
In105       O108   2.253       .  S
In105       O116   2.271       .  S
In105       O110   2.252       .  S
In105       O112   2.264       .  S
In105       O113   2.246       .  S
In105       O114   2.238       .  S
In105       O117   2.238       .  S
C106        O112   1.262       .  A
C106        O114   1.257       .  A
C106       C4800   1.486       .  S
O107        C115   1.259       .  A
O108        C115   1.260       .  A
C109        O116   1.259       .  A
C109        O110   1.258       .  A
C109       C4609   1.487       .  S
C111        O113   1.261       .  A
C111        O117   1.261       .  A
C111       C4640   1.481       .  S
C115       C4589   1.487       .  S
In118       O120   2.238       .  S
In118       O121   2.243       .  S
In118       O129   2.238       .  S
In118       O123   2.242       .  S
In118       O125   2.243       .  S
In118       O126   2.247       .  S
In118       O127   2.227       .  S
In118       O130   2.224       .  S
C119        O125   1.263       .  A
C119        O127   1.262       .  A
C119       C4549   1.480       .  S
O120        C128   1.260       .  A
O121        C128   1.259       .  A
C122        O129   1.258       .  A
C122        O123   1.260       .  A
C122       C4780   1.474       .  S
C124        O126   1.263       .  A
C124        O130   1.259       .  A
C124       C4629   1.472       .  S
C128       C4569   1.477       .  S
In131       O133   2.238       .  S
In131       O134   2.261       .  S
In131       O142   2.256       .  S
In131       O136   2.259       .  S
In131       O138   2.247       .  S
In131       O139   2.252       .  S
In131       O140   2.244       .  S
In131       O143   2.253       .  S
C132        O138   1.261       .  A
C132        O140   1.262       .  A
C132       C4700   1.485       .  S
O133        C141   1.258       .  A
O134        C141   1.262       .  A
C135        O142   1.260       .  A
C135        O136   1.258       .  A
C135       C4620   1.490       .  S
C137        O139   1.259       .  A
C137        O143   1.259       .  A
C137       C4520   1.484       .  S
C141       C4529   1.480       .  S
In144       O146   2.241       .  S
In144       O147   2.272       .  S
In144       O155   2.251       .  S
In144       O149   2.250       .  S
In144       O151   2.241       .  S
In144       O152   2.243       .  S
In144       O153   2.251       .  S
In144       O156   2.261       .  S
C145        O151   1.261       .  A
C145        O153   1.260       .  A
C145       C4560   1.480       .  S
O146        C154   1.256       .  A
O147        C154   1.261       .  A
C148        O155   1.260       .  A
C148        O149   1.260       .  A
C148       C4680   1.489       .  S
C150        O152   1.258       .  A
C150        O156   1.262       .  A
C150       C4489   1.488       .  S
C154       C4540   1.484       .  S
In157       O159   2.228       .  S
In157       O160   2.263       .  S
In157       O168   2.249       .  S
In157       O162   2.235       .  S
In157       O164   2.250       .  S
In157       O165   2.233       .  S
In157       O166   2.238       .  S
In157       O169   2.256       .  S
C158        O164   1.260       .  A
C158        O166   1.260       .  A
C158       C4409   1.481       .  S
O159        C167   1.257       .  A
O160        C167   1.263       .  A
C161        O168   1.262       .  A
C161        O162   1.259       .  A
C161       C4449   1.478       .  S
C163        O165   1.258       .  A
C163        O169   1.263       .  A
C163       C4469   1.481       .  S
C167       C4440   1.486       .  S
In170       O172   2.259       .  S
In170       O173   2.258       .  S
In170       O181   2.260       .  S
In170       O175   2.246       .  S
In170       O177   2.235       .  S
In170       O178   2.245       .  S
In170       O179   2.264       .  S
In170       O182   2.247       .  S
C171        O177   1.256       .  A
C171        O179   1.261       .  A
C171       C4349   1.483       .  S
O172        C180   1.260       .  A
O173        C180   1.259       .  A
C174        O181   1.262       .  A
C174        O175   1.258       .  A
C174       C4389   1.483       .  S
C176        O178   1.260       .  A
C176        O182   1.262       .  A
C176       C4480   1.484       .  S
C180       C4369   1.491       .  S
In183       O185   2.233       .  S
In183       O186   2.258       .  S
In183       O194   2.247       .  S
In183       O188   2.239       .  S
In183       O190   2.247       .  S
In183       O191   2.256       .  S
In183       O192   2.243       .  S
In183       O195   2.237       .  S
C184        O190   1.259       .  A
C184        O192   1.262       .  A
C184       C4309   1.484       .  S
O185        C193   1.258       .  A
O186        C193   1.262       .  A
C187        O194   1.259       .  A
C187        O188   1.259       .  A
C187       C4460   1.481       .  S
C189        O191   1.260       .  A
C189        O195   1.258       .  A
C189       C4660   1.481       .  S
C193       C4329   1.486       .  S
In196       O198   2.239       .  S
In196       O199   2.253       .  S
In196       O207   2.263       .  S
In196       O201   2.236       .  S
In196       O203   2.246       .  S
In196       O204   2.248       .  S
In196       O205   2.250       .  S
In196       O208   2.248       .  S
C197        O203   1.258       .  A
C197        O205   1.259       .  A
C197       C4360   1.483       .  S
O198        C206   1.259       .  A
O199        C206   1.260       .  A
C200        O207   1.262       .  A
C200        O201   1.261       .  A
C200       C4300   1.490       .  S
C202        O204   1.259       .  A
C202        O208   1.260       .  A
C202       C4269   1.485       .  S
C206       C4340   1.477       .  S
In209       O211   2.250       .  S
In209       O212   2.242       .  S
In209       O220   2.240       .  S
In209       O214   2.247       .  S
In209       O216   2.238       .  S
In209       O217   2.255       .  S
In209       O218   2.252       .  S
In209       O221   2.247       .  S
C210        O216   1.259       .  A
C210        O218   1.261       .  A
C210       C4189   1.481       .  S
O211        C219   1.260       .  A
O212        C219   1.257       .  A
C213        O220   1.260       .  A
C213        O214   1.261       .  A
C213       C4229   1.477       .  S
C215        O217   1.260       .  A
C215        O221   1.260       .  A
C215       C4209   1.483       .  S
C219       C4249   1.478       .  S
In222       O224   2.252       .  S
In222       O225   2.236       .  S
In222       O233   2.237       .  S
In222       O227   2.238       .  S
In222       O229   2.244       .  S
In222       O230   2.233       .  S
In222       O231   2.235       .  S
In222       O234   2.244       .  S
C223        O229   1.259       .  A
C223        O231   1.260       .  A
C223       C4129   1.475       .  S
O224        C232   1.261       .  A
O225        C232   1.257       .  A
C226        O233   1.259       .  A
C226        O227   1.259       .  A
C226       C4169   1.474       .  S
C228        O230   1.259       .  A
C228        O234   1.260       .  A
C228       C4149   1.473       .  S
C232       C4260   1.479       .  S
In235       O237   2.256       .  S
In235       O238   2.246       .  S
In235       O246   2.268       .  S
In235       O240   2.232       .  S
In235       O242   2.262       .  S
In235       O243   2.252       .  S
In235       O244   2.233       .  S
In235       O247   2.241       .  S
C236        O242   1.261       .  A
C236        O244   1.260       .  A
C236       C4200   1.485       .  S
O237        C245   1.261       .  A
O238        C245   1.259       .  A
C239        O246   1.263       .  A
C239        O240   1.257       .  A
C239       C4289   1.486       .  S
C241        O243   1.260       .  A
C241        O247   1.259       .  A
C241       C4109   1.479       .  S
C245       C4100   1.486       .  S
In248       O250   2.246       .  S
In248       O251   2.237       .  S
In248       O259   2.250       .  S
In248       O253   2.226       .  S
In248       O255   2.252       .  S
In248       O256   2.258       .  S
In248       O257   2.230       .  S
In248       O260   2.230       .  S
C249        O255   1.261       .  A
C249        O257   1.258       .  A
C249       C4320   1.481       .  S
O250        C258   1.259       .  A
O251        C258   1.260       .  A
C252        O259   1.262       .  A
C252        O253   1.258       .  A
C252       C4180   1.475       .  S
C254        O256   1.262       .  A
C254        O260   1.258       .  A
C254       C4120   1.477       .  S
C258       C4980   1.479       .  S
In261       O263   2.258       .  S
In261       O264   2.225       .  S
In261       O272   2.256       .  S
In261       O266   2.239       .  S
In261       O268   2.260       .  S
In261       O269   2.263       .  S
In261       O270   2.229       .  S
In261       O273   2.232       .  S
C262        O268   1.263       .  A
C262        O270   1.258       .  A
C262       C4049   1.479       .  S
O263        C271   1.263       .  A
O264        C271   1.260       .  A
C265        O272   1.259       .  A
C265        O266   1.259       .  A
C265       C4240   1.485       .  S
C267        O269   1.260       .  A
C267        O273   1.256       .  A
C267       C4069   1.477       .  S
C271       C4820   1.476       .  S
In274       O276   2.246       .  S
In274       O277   2.254       .  S
In274       O285   2.255       .  S
In274       O279   2.228       .  S
In274       O281   2.260       .  S
In274       O282   2.255       .  S
In274       O283   2.231       .  S
In274       O286   2.231       .  S
C275        O281   1.261       .  A
C275        O283   1.258       .  A
C275       C4140   1.476       .  S
O276        C284   1.258       .  A
O277        C284   1.261       .  A
C278        O285   1.261       .  A
C278        O279   1.259       .  A
C278       C4029   1.480       .  S
C280        O282   1.263       .  A
C280        O286   1.260       .  A
C280       C4080   1.482       .  S
C284       C4009   1.486       .  S
In287       O289   2.226       .  S
In287       O290   2.261       .  S
In287       O298   2.250       .  S
In287       O292   2.258       .  S
In287       O294   2.276       .  S
In287       O295   2.266       .  S
In287       O296   2.231       .  S
In287       O299   2.250       .  S
C288        O294   1.263       .  A
C288        O296   1.255       .  A
C288       C4060   1.485       .  S
O289        C297   1.259       .  A
O290        C297   1.263       .  A
C291        O298   1.260       .  A
C291        O292   1.262       .  A
C291       C4400   1.490       .  S
C293        O295   1.260       .  A
C293        O299   1.259       .  A
C293       C4600   1.489       .  S
C297       C4000   1.478       .  S
In300       O302   2.241       .  S
In300       O303   2.248       .  S
In300       O311   2.256       .  S
In300       O305   2.235       .  S
In300       O307   2.255       .  S
In300       O308   2.263       .  S
In300       O309   2.242       .  S
In300       O312   2.233       .  S
C301        O307   1.262       .  A
C301        O309   1.258       .  A
C301       C4420   1.483       .  S
O302        C310   1.259       .  A
O303        C310   1.261       .  A
C304        O311   1.262       .  A
C304        O305   1.260       .  A
C304       C4040   1.480       .  S
C306        O308   1.263       .  A
C306        O312   1.258       .  A
C306       C3969   1.480       .  S
C310       C3989   1.475       .  S
In313       O315   2.247       .  S
In313       O316   2.244       .  S
In313       O324   2.256       .  S
In313       O318   2.239       .  S
In313       O320   2.250       .  S
In313       O321   2.259       .  S
In313       O322   2.226       .  S
In313       O325   2.235       .  S
C314        O320   1.264       .  A
C314        O322   1.260       .  A
C314       C3889   1.479       .  S
O315        C323   1.260       .  A
O316        C323   1.261       .  A
C317        O324   1.260       .  A
C317        O318   1.257       .  A
C317       C3929   1.482       .  S
C319        O321   1.261       .  A
C319        O325   1.258       .  A
C319       C3949   1.474       .  S
C323       C3909   1.486       .  S
In326       O328   2.245       .  S
In326       O329   2.240       .  S
In326       O337   2.255       .  S
In326       O331   2.249       .  S
In326       O333   2.248       .  S
In326       O334   2.249       .  S
In326       O335   2.232       .  S
In326       O338   2.241       .  S
C327        O333   1.263       .  A
C327        O335   1.259       .  A
C327       C3849   1.478       .  S
O328        C336   1.261       .  A
O329        C336   1.260       .  A
C330        O337   1.257       .  A
C330        O331   1.259       .  A
C330       C3869   1.482       .  S
C332        O334   1.260       .  A
C332        O338   1.261       .  A
C332       C3960   1.485       .  S
C336       C4500   1.477       .  S
In339       O341   2.257       .  S
In339       O342   2.237       .  S
In339       O350   2.247       .  S
In339       O344   2.246       .  S
In339       O346   2.249       .  S
In339       O347   2.241       .  S
In339       O348   2.250       .  S
In339       O351   2.255       .  S
C340        O346   1.257       .  A
C340        O348   1.259       .  A
C340       C3900   1.479       .  S
O341        C349   1.260       .  A
O342        C349   1.259       .  A
C343        O350   1.261       .  A
C343        O344   1.261       .  A
C343       C3820   1.481       .  S
C345        O347   1.261       .  A
C345        O351   1.262       .  A
C345       C3789   1.484       .  S
C349       C3829   1.485       .  S
In352       O354   2.232       .  S
In352       O355   2.253       .  S
In352       O363   2.243       .  S
In352       O357   2.236       .  S
In352       O359   2.250       .  S
In352       O360   2.258       .  S
In352       O361   2.236       .  S
In352       O364   2.237       .  S
C353        O359   1.261       .  A
C353        O361   1.261       .  A
C353       C3749   1.485       .  S
O354        C362   1.258       .  A
O355        C362   1.262       .  A
C356        O363   1.261       .  A
C356        O357   1.260       .  A
C356       C3880   1.478       .  S
C358        O360   1.261       .  A
C358        O364   1.258       .  A
C358       C3769   1.481       .  S
C362       C3840   1.476       .  S
In365       O367   2.222       .  S
In365       O368   2.245       .  S
In365       O376   2.239       .  S
In365       O370   2.234       .  S
In365       O372   2.246       .  S
In365       O373   2.230       .  S
In365       O374   2.233       .  S
In365       O377   2.253       .  S
C366        O372   1.260       .  A
C366        O374   1.258       .  A
C366       C3689   1.475       .  S
O367        C375   1.259       .  A
O368        C375   1.261       .  A
C369        O376   1.260       .  A
C369        O370   1.262       .  A
C369       C3940   1.479       .  S
C371        O373   1.257       .  A
C371        O377   1.261       .  A
C371       C3709   1.478       .  S
C375       C3729   1.473       .  S
In378       O380   2.232       .  S
In378       O381   2.240       .  S
In378       O389   2.230       .  S
In378       O383   2.246       .  S
In378       O385   2.251       .  S
In378       O386   2.235       .  S
In378       O387   2.230       .  S
In378       O390   2.254       .  S
C379        O385   1.260       .  A
C379        O387   1.259       .  A
C379       C3860   1.479       .  S
O380        C388   1.259       .  A
O381        C388   1.262       .  A
C382        O389   1.259       .  A
C382        O383   1.262       .  A
C382       C3669   1.479       .  S
C384        O386   1.257       .  A
C384        O390   1.261       .  A
C384       C4580   1.483       .  S
C388       C3740   1.473       .  S
In391       O393   2.255       .  S
In391       O394   2.243       .  S
In391       O402   2.241       .  S
In391       O396   2.264       .  S
In391       O398   2.247       .  S
In391       O399   2.245       .  S
In391       O400   2.228       .  S
In391       O403   2.242       .  S
C392        O398   1.261       .  A
C392        O400   1.261       .  A
C392       C3700   1.482       .  S
O393        C401   1.260       .  A
O394        C401   1.259       .  A
C395        O402   1.259       .  A
C395        O396   1.259       .  A
C395       C3629   1.484       .  S
C397        O399   1.261       .  A
C397        O403   1.261       .  A
C397       C3649   1.478       .  S
C401       C3609   1.486       .  S
In404       O406   2.246       .  S
In404       O407   2.245       .  S
In404       O415   2.246       .  S
In404       O409   2.243       .  S
In404       O411   2.249       .  S
In404       O412   2.260       .  S
In404       O413   2.242       .  S
In404       O416   2.230       .  S
C405        O411   1.262       .  A
C405        O413   1.259       .  A
C405       C3569   1.486       .  S
O406        C414   1.261       .  A
O407        C414   1.260       .  A
C408        O415   1.261       .  A
C408        O409   1.259       .  A
C408       C3680   1.484       .  S
C410        O412   1.262       .  A
C410        O416   1.257       .  A
C410       C3660   1.480       .  S
C414       C3589   1.482       .  S
In417       O419   2.233       .  S
In417       O420   2.253       .  S
In417       O428   2.264       .  S
In417       O422   2.244       .  S
In417       O424   2.240       .  S
In417       O425   2.250       .  S
In417       O426   2.238       .  S
In417       O429   2.241       .  S
C418        O424   1.264       .  A
C418        O426   1.261       .  A
C418       C3529   1.480       .  S
O419        C427   1.257       .  A
O420        C427   1.262       .  A
C421        O428   1.259       .  A
C421        O422   1.259       .  A
C421       C3640   1.484       .  S
C423        O425   1.262       .  A
C423        O429   1.260       .  A
C423       C4900   1.479       .  S
C427       C3560   1.477       .  S
In430       O432   2.232       .  S
In430       O433   2.266       .  S
In430       O441   2.252       .  S
In430       O435   2.230       .  S
In430       O437   2.248       .  S
In430       O438   2.243       .  S
In430       O439   2.242       .  S
In430       O442   2.251       .  S
C431        O437   1.259       .  A
C431        O439   1.260       .  A
C431       C3580   1.477       .  S
O432        C440   1.256       .  A
O433        C440   1.262       .  A
C434        O441   1.263       .  A
C434        O435   1.258       .  A
C434       C3509   1.483       .  S
C436        O438   1.260       .  A
C436        O442   1.261       .  A
C436       C3489   1.486       .  S
C440       C3549   1.483       .  S
In443       O445   2.240       .  S
In443       O446   2.261       .  S
In443       O454   2.254       .  S
In443       O448   2.256       .  S
In443       O450   2.245       .  S
In443       O451   2.262       .  S
In443       O452   2.234       .  S
In443       O455   2.238       .  S
C444        O450   1.264       .  A
C444        O452   1.261       .  A
C444       C3540   1.474       .  S
O445        C453   1.262       .  A
O446        C453   1.262       .  A
C447        O454   1.259       .  A
C447        O448   1.259       .  A
C447       C3809   1.482       .  S
C449        O451   1.261       .  A
C449        O455   1.256       .  A
C449       C3469   1.478       .  S
C453       C5040   1.482       .  S
In456       O458   2.255       .  S
In456       O459   2.249       .  S
In456       O467   2.262       .  S
In456       O461   2.242       .  S
In456       O463   2.276       .  S
In456       O464   2.261       .  S
In456       O465   2.237       .  S
In456       O468   2.234       .  S
C457        O463   1.262       .  A
C457        O465   1.257       .  A
C457       C3760   1.487       .  S
O458        C466   1.261       .  A
O459        C466   1.260       .  A
C460        O467   1.260       .  A
C460        O461   1.259       .  A
C460       C3520   1.480       .  S
C462        O464   1.261       .  A
C462        O468   1.260       .  A
C462       C3480   1.485       .  S
C466       C3449   1.483       .  S
In469       O471   2.239       .  S
In469       O472   2.267       .  S
In469       O480   2.251       .  S
In469       O474   2.264       .  S
In469       O476   2.257       .  S
In469       O477   2.245       .  S
In469       O478   2.229       .  S
In469       O481   2.256       .  S
C470        O476   1.262       .  A
C470        O478   1.260       .  A
C470       C3389   1.481       .  S
O471        C479   1.259       .  A
O472        C479   1.261       .  A
C473        O480   1.258       .  A
C473        O474   1.257       .  A
C473       C3420   1.486       .  S
C475        O477   1.258       .  A
C475        O481   1.261       .  A
C475       C3620   1.487       .  S
C479       C3429   1.485       .  S
In482       O484   2.264       .  S
In482       O485   2.238       .  S
In482       O493   2.249       .  S
In482       O487   2.243       .  S
In482       O489   2.236       .  S
In482       O490   2.235       .  S
In482       O491   2.257       .  S
In482       O494   2.267       .  S
C483        O489   1.260       .  A
C483        O491   1.260       .  A
C483       C3329   1.486       .  S
O484        C492   1.261       .  A
O485        C492   1.259       .  A
C486        O493   1.261       .  A
C486        O487   1.260       .  A
C486       C3369   1.476       .  S
C488        O490   1.259       .  A
C488        O494   1.260       .  A
C488       C3349   1.484       .  S
C492       C3440   1.487       .  S
In495       O497   2.236       .  S
In495       O498   2.246       .  S
In495       O506   2.265       .  S
In495       O500   2.224       .  S
In495       O502   2.244       .  S
In495       O503   2.264       .  S
In495       O504   2.226       .  S
In495       O507   2.218       .  S
C496        O502   1.262       .  A
C496        O504   1.261       .  A
C496       C3400   1.478       .  S
O497        C505   1.260       .  A
O498        C505   1.260       .  A
C499        O506   1.262       .  A
C499        O500   1.256       .  A
C499       C3289   1.474       .  S
C501        O503   1.263       .  A
C501        O507   1.259       .  A
C501       C3309   1.482       .  S
C505       C3720   1.482       .  S
In508       O510   2.257       .  S
In508       O511   2.232       .  S
In508       O519   2.248       .  S
In508       O513   2.233       .  S
In508       O515   2.252       .  S
In508       O516   2.260       .  S
In508       O517   2.229       .  S
In508       O520   2.236       .  S
C509        O515   1.262       .  A
C509        O517   1.258       .  A
C509       C3269   1.482       .  S
O510        C518   1.261       .  A
O511        C518   1.257       .  A
C512        O519   1.261       .  A
C512        O513   1.259       .  A
C512       C3380   1.482       .  S
C514        O516   1.262       .  A
C514        O520   1.258       .  A
C514       C3320   1.482       .  S
C518       C3980   1.486       .  S
In521       O523   2.237       .  S
In521       O524   2.254       .  S
In521       O532   2.246       .  S
In521       O526   2.244       .  S
In521       O528   2.234       .  S
In521       O529   2.238       .  S
In521       O530   2.237       .  S
In521       O533   2.251       .  S
C522        O528   1.263       .  A
C522        O530   1.261       .  A
C522       C3220   1.473       .  S
O523        C531   1.259       .  A
O524        C531   1.261       .  A
C525        O532   1.259       .  A
C525        O526   1.261       .  A
C525       C3300   1.484       .  S
C527        O529   1.262       .  A
C527        O533   1.260       .  A
C527       C3229   1.483       .  S
C531       C3249   1.485       .  S
In534       O536   2.251       .  S
In534       O537   2.237       .  S
In534       O545   2.241       .  S
In534       O539   2.250       .  S
In534       O541   2.246       .  S
In534       O542   2.237       .  S
In534       O543   2.235       .  S
In534       O546   2.252       .  S
C535        O541   1.261       .  A
C535        O543   1.259       .  A
C535       C3280   1.477       .  S
O536        C544   1.260       .  A
O537        C544   1.259       .  A
C538        O545   1.260       .  A
C538        O539   1.259       .  A
C538       C3189   1.482       .  S
C540        O542   1.259       .  A
C540        O546   1.260       .  A
C540       C4429   1.483       .  S
C544       C3260   1.482       .  S
In547       O549   2.260       .  S
In547       O550   2.241       .  S
In547       O558   2.264       .  S
In547       O552   2.253       .  S
In547       O554   2.241       .  S
In547       O555   2.236       .  S
In547       O556   2.244       .  S
In547       O559   2.257       .  S
C548        O554   1.258       .  A
C548        O556   1.263       .  A
C548       C3149   1.483       .  S
O549        C557   1.263       .  A
O550        C557   1.259       .  A
C551        O558   1.258       .  A
C551        O552   1.257       .  A
C551       C3409   1.486       .  S
C553        O555   1.258       .  A
C553        O559   1.263       .  A
C553       C3169   1.485       .  S
C557       C4220   1.488       .  S
In560       O562   2.235       .  S
In560       O563   2.240       .  S
In560       O571   2.252       .  S
In560       O565   2.246       .  S
In560       O567   2.262       .  S
In560       O568   2.240       .  S
In560       O569   2.246       .  S
In560       O572   2.244       .  S
C561        O567   1.261       .  A
C561        O569   1.258       .  A
C561       C3340   1.484       .  S
O562        C570   1.259       .  A
O563        C570   1.260       .  A
C564        O571   1.260       .  A
C564        O565   1.259       .  A
C564       C3140   1.488       .  S
C566        O568   1.259       .  A
C566        O572   1.262       .  A
C566       C3180   1.484       .  S
C570       C3109   1.479       .  S
In573       O575   2.259       .  S
In573       O576   2.246       .  S
In573       O584   2.248       .  S
In573       O578   2.262       .  S
In573       O580   2.257       .  S
In573       O581   2.259       .  S
In573       O582   2.245       .  S
In573       O585   2.236       .  S
C574        O580   1.262       .  A
C574        O582   1.260       .  A
C574       C3209   1.484       .  S
O575        C583   1.260       .  A
O576        C583   1.257       .  A
C577        O584   1.259       .  A
C577        O578   1.261       .  A
C577       C3069   1.488       .  S
C579        O581   1.261       .  A
C579        O585   1.261       .  A
C579       C3089   1.482       .  S
C583       C3049   1.486       .  S
In586       O588   2.252       .  S
In586       O589   2.239       .  S
In586       O597   2.244       .  S
In586       O591   2.239       .  S
In586       O593   2.256       .  S
In586       O594   2.253       .  S
In586       O595   2.226       .  S
In586       O598   2.232       .  S
C587        O593   1.261       .  A
C587        O595   1.260       .  A
C587       C3029   1.478       .  S
O588        C596   1.259       .  A
O589        C596   1.260       .  A
C590        O597   1.259       .  A
C590        O591   1.260       .  A
C590       C3200   1.480       .  S
C592        O594   1.263       .  A
C592        O598   1.260       .  A
C592       C3100   1.482       .  S
C596       C3780   1.479       .  S
In599       O601   2.244       .  S
In599       O602   2.258       .  S
In599       O610   2.255       .  S
In599       O604   2.239       .  S
In599       O606   2.241       .  S
In599       O607   2.243       .  S
In599       O608   2.251       .  S
In599       O611   2.263       .  S
C600        O606   1.259       .  A
C600        O608   1.259       .  A
C600       C3160   1.479       .  S
O601        C609   1.259       .  A
O602        C609   1.261       .  A
C603        O610   1.262       .  A
C603        O604   1.260       .  A
C603       C3080   1.485       .  S
C605        O607   1.258       .  A
C605        O611   1.262       .  A
C605       C4089   1.489       .  S
C609       C3020   1.480       .  S
In612       O614   2.228       .  S
In612       O615   2.260       .  S
In612       O623   2.252       .  S
In612       O617   2.260       .  S
In612       O619   2.259       .  S
In612       O620   2.266       .  S
In612       O621   2.247       .  S
In612       O624   2.248       .  S
C613        O619   1.261       .  A
C613        O621   1.259       .  A
C613       C3040   1.487       .  S
O614        C622   1.258       .  A
O615        C622   1.262       .  A
C616        O623   1.258       .  A
C616        O617   1.261       .  A
C616       C3129   1.488       .  S
C618        O620   1.258       .  A
C618        O624   1.260       .  A
C618       C3460   1.490       .  S
C622       C3009   1.482       .  S
In625       O627   2.236       .  S
In625       O628   2.260       .  S
In625       O636   2.237       .  S
In625       O630   2.239       .  S
In625       O632   2.232       .  S
In625       O633   2.243       .  S
In625       O634   2.251       .  S
In625       O637   2.253       .  S
C626        O632   1.257       .  A
C626        O634   1.262       .  A
C626       C2949   1.481       .  S
O627        C635   1.259       .  A
O628        C635   1.264       .  A
C629        O636   1.261       .  A
C629        O630   1.261       .  A
C629       C2969   1.475       .  S
C631        O633   1.260       .  A
C631        O637   1.260       .  A
C631       C4709   1.478       .  S
C635       C3000   1.485       .  S
In638       O640   2.253       .  S
In638       O641   2.242       .  S
In638       O649   2.248       .  S
In638       O643   2.238       .  S
In638       O645   2.248       .  S
In638       O646   2.238       .  S
In638       O647   2.237       .  S
In638       O650   2.253       .  S
C639        O645   1.261       .  A
C639        O647   1.258       .  A
C639       C2889   1.481       .  S
O640        C648   1.262       .  A
O641        C648   1.259       .  A
C642        O649   1.262       .  A
C642        O643   1.260       .  A
C642       C2940   1.482       .  S
C644        O646   1.260       .  A
C644        O650   1.259       .  A
C644       C2909   1.476       .  S
C648       C2989   1.480       .  S
In651       O653   2.250       .  S
In651       O654   2.241       .  S
In651       O662   2.243       .  S
In651       O656   2.248       .  S
In651       O658   2.261       .  S
In651       O659   2.256       .  S
In651       O660   2.235       .  S
In651       O663   2.234       .  S
C652        O658   1.260       .  A
C652        O660   1.258       .  A
C652       C2960   1.482       .  S
O653        C661   1.260       .  A
O654        C661   1.258       .  A
C655        O662   1.260       .  A
C655        O656   1.262       .  A
C655       C2860   1.485       .  S
C657        O659   1.262       .  A
C657        O663   1.260       .  A
C657       C2880   1.480       .  S
C661       C4509   1.483       .  S
In664       O666   2.255       .  S
In664       O667   2.244       .  S
In664       O675   2.257       .  S
In664       O669   2.239       .  S
In664       O671   2.254       .  S
In664       O672   2.237       .  S
In664       O673   2.250       .  S
In664       O676   2.253       .  S
C665        O671   1.261       .  A
C665        O673   1.260       .  A
C665       C2809   1.485       .  S
O666        C674   1.260       .  A
O667        C674   1.259       .  A
C668        O675   1.260       .  A
C668        O669   1.260       .  A
C668       C2929   1.483       .  S
C670        O672   1.259       .  A
C670        O676   1.261       .  A
C670       C2869   1.481       .  S
C674       C2829   1.484       .  S
In677       O679   2.232       .  S
In677       O680   2.260       .  S
In677       O688   2.258       .  S
In677       O682   2.265       .  S
In677       O684   2.252       .  S
In677       O685   2.259       .  S
In677       O686   2.232       .  S
In677       O689   2.260       .  S
C678        O684   1.263       .  A
C678        O686   1.260       .  A
C678       C2820   1.486       .  S
O679        C687   1.260       .  A
O680        C687   1.261       .  A
C681        O688   1.259       .  A
C681        O682   1.259       .  A
C681       C2780   1.491       .  S
C683        O685   1.258       .  A
C683        O689   1.259       .  A
C683       C2760   1.490       .  S
C687       C2800   1.479       .  S
In690       O692   2.232       .  S
In690       O693   2.251       .  S
In690       O701   2.249       .  S
In690       O695   2.241       .  S
In690       O697   2.251       .  S
In690       O698   2.260       .  S
In690       O699   2.239       .  S
In690       O702   2.238       .  S
C691        O697   1.260       .  A
C691        O699   1.258       .  A
C691       C2709   1.481       .  S
O692        C700   1.260       .  A
O693        C700   1.262       .  A
C694        O701   1.262       .  A
C694        O695   1.260       .  A
C694       C2849   1.477       .  S
C696        O698   1.258       .  A
C696        O702   1.258       .  A
C696       C2729   1.484       .  S
C700       C2789   1.474       .  S
In703       O705   2.237       .  S
In703       O706   2.240       .  S
In703       O714   2.260       .  S
In703       O708   2.253       .  S
In703       O710   2.249       .  S
In703       O711   2.260       .  S
In703       O712   2.242       .  S
In703       O715   2.216       .  S
C704        O710   1.261       .  A
C704        O712   1.259       .  A
C704       C2669   1.481       .  S
O705        C713   1.259       .  A
O706        C713   1.261       .  A
C707        O714   1.260       .  A
C707        O708   1.260       .  A
C707       C2769   1.491       .  S
C709        O711   1.262       .  A
C709        O715   1.260       .  A
C709       C2689   1.484       .  S
C713       C4760   1.480       .  S
In716       O718   2.228       .  S
In716       O719   2.242       .  S
In716       O727   2.248       .  S
In716       O721   2.242       .  S
In716       O723   2.245       .  S
In716       O724   2.266       .  S
In716       O725   2.238       .  S
In716       O728   2.226       .  S
C717        O723   1.263       .  A
C717        O725   1.260       .  A
C717       C2720   1.480       .  S
O718        C726   1.259       .  A
O719        C726   1.262       .  A
C720        O727   1.258       .  A
C720        O721   1.259       .  A
C720       C2660   1.479       .  S
C722        O724   1.261       .  A
C722        O728   1.254       .  A
C722       C2700   1.480       .  S
C726       C2629   1.473       .  S
In729       O731   2.239       .  S
In729       O732   2.245       .  S
In729       O740   2.250       .  S
In729       O734   2.245       .  S
In729       O736   2.244       .  S
In729       O737   2.240       .  S
In729       O738   2.248       .  S
In729       O741   2.253       .  S
C730        O736   1.260       .  A
C730        O738   1.260       .  A
C730       C2569   1.476       .  S
O731        C739   1.257       .  A
O732        C739   1.260       .  A
C733        O740   1.259       .  A
C733        O734   1.260       .  A
C733       C2980   1.485       .  S
C735        O737   1.259       .  A
C735        O741   1.263       .  A
C735       C2609   1.486       .  S
C739       C2589   1.475       .  S
In742       O744   2.263       .  S
In742       O745   2.239       .  S
In742       O753   2.249       .  S
In742       O747   2.223       .  S
In742       O749   2.257       .  S
In742       O750   2.255       .  S
In742       O751   2.236       .  S
In742       O754   2.241       .  S
C743        O749   1.258       .  A
C743        O751   1.257       .  A
C743       C2900   1.475       .  S
O744        C752   1.260       .  A
O745        C752   1.260       .  A
C746        O753   1.264       .  A
C746        O747   1.259       .  A
C746       C2549   1.481       .  S
C748        O750   1.263       .  A
C748        O754   1.260       .  A
C748       C2620   1.480       .  S
C752       C2529   1.489       .  S
In755       O757   2.226       .  S
In755       O758   2.249       .  S
In755       O766   2.247       .  S
In755       O760   2.246       .  S
In755       O762   2.243       .  S
In755       O763   2.244       .  S
In755       O764   2.240       .  S
In755       O767   2.249       .  S
C756        O762   1.263       .  A
C756        O764   1.261       .  A
C756       C2580   1.481       .  S
O757        C765   1.258       .  A
O758        C765   1.262       .  A
C759        O766   1.259       .  A
C759        O760   1.258       .  A
C759       C2649   1.482       .  S
C761        O763   1.259       .  A
C761        O767   1.259       .  A
C761       C2500   1.480       .  S
C765       C2509   1.471       .  S
In768       O770   2.231       .  S
In768       O771   2.253       .  S
In768       O779   2.244       .  S
In768       O773   2.248       .  S
In768       O775   2.247       .  S
In768       O776   2.248       .  S
In768       O777   2.236       .  S
In768       O780   2.234       .  S
C769        O775   1.262       .  A
C769        O777   1.260       .  A
C769       C2680   1.480       .  S
O770        C778   1.260       .  A
O771        C778   1.262       .  A
C772        O779   1.258       .  A
C772        O773   1.259       .  A
C772       C2560   1.481       .  S
C774        O776   1.260       .  A
C774        O780   1.259       .  A
C774       C4880   1.477       .  S
C778       C2520   1.477       .  S
In781       O783   2.247       .  S
In781       O784   2.259       .  S
In781       O792   2.232       .  S
In781       O786   2.257       .  S
In781       O788   2.246       .  S
In781       O789   2.244       .  S
In781       O790   2.259       .  S
In781       O793   2.268       .  S
C782        O788   1.259       .  A
C782        O790   1.262       .  A
C782       C2429   1.483       .  S
O783        C791   1.259       .  A
O784        C791   1.261       .  A
C785        O792   1.260       .  A
C785        O786   1.263       .  A
C785       C2449   1.482       .  S
C787        O789   1.260       .  A
C787        O793   1.260       .  A
C787       C3920   1.485       .  S
C791       C2469   1.481       .  S
In794       O796   2.253       .  S
In794       O797   2.244       .  S
In794       O805   2.251       .  S
In794       O799   2.255       .  S
In794       O801   2.233       .  S
In794       O802   2.254       .  S
In794       O803   2.251       .  S
In794       O806   2.252       .  S
C795        O801   1.261       .  A
C795        O803   1.261       .  A
C795       C2389   1.480       .  S
O796        C804   1.261       .  A
O797        C804   1.261       .  A
C798        O805   1.258       .  A
C798        O799   1.259       .  A
C798       C2409   1.477       .  S
C800        O802   1.260       .  A
C800        O806   1.260       .  A
C800       C2840   1.480       .  S
C804       C2480   1.483       .  S
In807       O809   2.235       .  S
In807       O810   2.262       .  S
In807       O818   2.256       .  S
In807       O812   2.230       .  S
In807       O814   2.264       .  S
In807       O815   2.253       .  S
In807       O816   2.234       .  S
In807       O819   2.236       .  S
C808        O814   1.260       .  A
C808        O816   1.259       .  A
C808       C2440   1.485       .  S
O809        C817   1.256       .  A
O810        C817   1.259       .  A
C811        O818   1.263       .  A
C811        O812   1.259       .  A
C811       C2349   1.481       .  S
C813        O815   1.261       .  A
C813        O819   1.260       .  A
C813       C2369   1.481       .  S
C817       C3800   1.479       .  S
In820       O822   2.244       .  S
In820       O823   2.242       .  S
In820       O831   2.255       .  S
In820       O825   2.228       .  S
In820       O827   2.232       .  S
In820       O828   2.231       .  S
In820       O829   2.240       .  S
In820       O832   2.253       .  S
C821        O827   1.259       .  A
C821        O829   1.261       .  A
C821       C2309   1.470       .  S
O822        C830   1.260       .  A
O823        C830   1.261       .  A
C824        O831   1.261       .  A
C824        O825   1.257       .  A
C824       C2420   1.478       .  S
C826        O828   1.256       .  A
C826        O832   1.262       .  A
C826       C2380   1.481       .  S
C830       C2340   1.479       .  S
In833       O835   2.232       .  S
In833       O836   2.247       .  S
In833       O844   2.242       .  S
In833       O838   2.249       .  S
In833       O840   2.238       .  S
In833       O841   2.234       .  S
In833       O842   2.247       .  S
In833       O845   2.250       .  S
C834        O840   1.261       .  A
C834        O842   1.259       .  A
C834       C2280   1.483       .  S
O835        C843   1.258       .  A
O836        C843   1.258       .  A
C837        O844   1.258       .  A
C837        O838   1.262       .  A
C837       C2360   1.485       .  S
C839        O841   1.261       .  A
C839        O845   1.261       .  A
C839       C2600   1.482       .  S
C843       C2289   1.476       .  S
In846       O848   2.224       .  S
In846       O849   2.244       .  S
In846       O857   2.251       .  S
In846       O851   2.233       .  S
In846       O853   2.242       .  S
In846       O854   2.260       .  S
In846       O855   2.238       .  S
In846       O858   2.256       .  S
C847        O853   1.258       .  A
C847        O855   1.259       .  A
C847       C2320   1.481       .  S
O848        C856   1.259       .  A
O849        C856   1.265       .  A
C850        O857   1.263       .  A
C850        O851   1.261       .  A
C850       C2249   1.477       .  S
C852        O854   1.257       .  A
C852        O858   1.257       .  A
C852       C2229   1.480       .  S
C856       C2300   1.475       .  S
In859       O861   2.250       .  S
In859       O862   2.264       .  S
In859       O870   2.250       .  S
In859       O864   2.246       .  S
In859       O866   2.255       .  S
In859       O867   2.253       .  S
In859       O868   2.244       .  S
In859       O871   2.248       .  S
C860        O866   1.257       .  A
C860        O868   1.259       .  A
C860       C2169   1.483       .  S
O861        C869   1.260       .  A
O862        C869   1.258       .  A
C863        O870   1.261       .  A
C863        O864   1.260       .  A
C863       C2460   1.487       .  S
C865        O867   1.261       .  A
C865        O871   1.260       .  A
C865       C2209   1.483       .  S
C869       C2189   1.486       .  S
In872       O874   2.247       .  S
In872       O875   2.251       .  S
In872       O883   2.248       .  S
In872       O877   2.228       .  S
In872       O879   2.244       .  S
In872       O880   2.254       .  S
In872       O881   2.237       .  S
In872       O884   2.248       .  S
C873        O879   1.259       .  A
C873        O881   1.256       .  A
C873       C2400   1.479       .  S
O874        C882   1.258       .  A
O875        C882   1.260       .  A
C876        O883   1.264       .  A
C876        O877   1.259       .  A
C876       C2149   1.474       .  S
C878        O880   1.261       .  A
C878        O884   1.260       .  A
C878       C2220   1.480       .  S
C882       C2749   1.476       .  S
In885       O887   2.247       .  S
In885       O888   2.252       .  S
In885       O896   2.245       .  S
In885       O890   2.227       .  S
In885       O892   2.226       .  S
In885       O893   2.255       .  S
In885       O894   2.249       .  S
In885       O897   2.242       .  S
C886        O892   1.258       .  A
C886        O894   1.262       .  A
C886       C2269   1.482       .  S
O887        C895   1.259       .  A
O888        C895   1.260       .  A
C889        O896   1.262       .  A
C889        O890   1.258       .  A
C889       C2109   1.477       .  S
C891        O893   1.260       .  A
C891        O897   1.259       .  A
C891       C2140   1.485       .  S
C895       C2489   1.486       .  S
In898       O900   2.253       .  S
In898       O901   2.227       .  S
In898       O909   2.250       .  S
In898       O903   2.255       .  S
In898       O905   2.252       .  S
In898       O906   2.259       .  S
In898       O907   2.230       .  S
In898       O910   2.229       .  S
C899        O905   1.264       .  A
C899        O907   1.261       .  A
C899       C2089   1.484       .  S
O900        C908   1.262       .  A
O901        C908   1.260       .  A
C902        O909   1.257       .  A
C902        O903   1.261       .  A
C902       C2260   1.487       .  S
C904        O906   1.261       .  A
C904        O910   1.259       .  A
C904       C2129   1.476       .  S
C908       C3500   1.475       .  S
In911       O913   2.231       .  S
In911       O914   2.255       .  S
In911       O922   2.256       .  S
In911       O916   2.233       .  S
In911       O918   2.239       .  S
In911       O919   2.241       .  S
In911       O920   2.237       .  S
In911       O923   2.250       .  S
C912        O918   1.261       .  A
C912        O920   1.260       .  A
C912       C2180   1.478       .  S
O913        C921   1.258       .  A
O914        C921   1.263       .  A
C915        O922   1.258       .  A
C915        O916   1.258       .  A
C915       C2120   1.480       .  S
C917        O919   1.260       .  A
C917        O923   1.260       .  A
C917       C2049   1.480       .  S
C921       C2069   1.483       .  S
In924       O926   2.258       .  S
In924       O927   2.247       .  S
In924       O935   2.249       .  S
In924       O929   2.246       .  S
In924       O931   2.243       .  S
In924       O932   2.245       .  S
In924       O933   2.233       .  S
In924       O936   2.235       .  S
C925        O931   1.262       .  A
C925        O933   1.259       .  A
C925       C2100   1.476       .  S
O926        C934   1.262       .  A
O927        C934   1.256       .  A
C928        O935   1.259       .  A
C928        O929   1.259       .  A
C928       C2160   1.483       .  S
C930        O932   1.262       .  A
C930        O936   1.259       .  A
C930       C3600   1.481       .  S
C934       C2080   1.486       .  S
In937       O939   2.235       .  S
In937       O940   2.262       .  S
In937       O948   2.256       .  S
In937       O942   2.255       .  S
In937       O944   2.242       .  S
In937       O945   2.255       .  S
In937       O946   2.232       .  S
In937       O949   2.253       .  S
C938        O944   1.262       .  A
C938        O946   1.259       .  A
C938       C1989   1.474       .  S
O939        C947   1.259       .  A
O940        C947   1.262       .  A
C941        O948   1.260       .  A
C941        O942   1.260       .  A
C941       C2009   1.486       .  S
C943        O945   1.259       .  A
C943        O949   1.259       .  A
C943       C2540   1.489       .  S
C947       C2029   1.480       .  S
In950       O952   2.249       .  S
In950       O953   2.257       .  S
In950       O961   2.245       .  S
In950       O955   2.263       .  S
In950       O957   2.258       .  S
In950       O958   2.247       .  S
In950       O959   2.242       .  S
In950       O962   2.259       .  S
C951        O957   1.261       .  A
C951        O959   1.258       .  A
C951       C1929   1.479       .  S
O952        C960   1.261       .  A
O953        C960   1.260       .  A
C954        O961   1.259       .  A
C954        O955   1.261       .  A
C954       C1980   1.483       .  S
C956        O958   1.261       .  A
C956        O962   1.260       .  A
C956       C1949   1.487       .  S
C960       C2040   1.490       .  S
In963       O965   2.253       .  S
In963       O966   2.231       .  S
In963       O974   2.267       .  S
In963       O968   2.237       .  S
In963       O970   2.251       .  S
In963       O971   2.250       .  S
In963       O972   2.249       .  S
In963       O975   2.226       .  S
C964        O970   1.260       .  A
C964        O972   1.260       .  A
C964       C1889   1.480       .  S
O965        C973   1.263       .  A
O966        C973   1.257       .  A
C967        O974   1.262       .  A
C967        O968   1.258       .  A
C967       C2020   1.488       .  S
C969        O971   1.260       .  A
C969        O975   1.260       .  A
C969       C1909   1.479       .  S
C973       C4160   1.484       .  S
In976       O978   2.234       .  S
In976       O979   2.263       .  S
In976       O987   2.259       .  S
In976       O981   2.230       .  S
In976       O983   2.238       .  S
In976       O984   2.240       .  S
In976       O985   2.249       .  S
In976       O988   2.244       .  S
C977        O983   1.259       .  A
C977        O985   1.260       .  A
C977       C1940   1.483       .  S
O978        C986   1.255       .  A
O979        C986   1.261       .  A
C980        O987   1.264       .  A
C980        O981   1.258       .  A
C980       C1869   1.485       .  S
C982        O984   1.259       .  A
C982        O988   1.260       .  A
C982       C1920   1.476       .  S
C986       C1849   1.485       .  S
In989       O991   2.225       .  S
In989       O992   2.252       .  S
In989      O1000   2.252       .  S
In989       O994   2.254       .  S
In989       O996   2.244       .  S
In989       O997   2.258       .  S
In989       O998   2.265       .  S
In989      O1001   2.243       .  S
C990        O996   1.257       .  A
C990        O998   1.259       .  A
C990       C1900   1.480       .  S
O991        C999   1.261       .  A
O992        C999   1.262       .  A
C993       O1000   1.260       .  A
C993        O994   1.260       .  A
C993       C1820   1.483       .  S
C995        O997   1.259       .  A
C995       O1001   1.259       .  A
C995       C4020   1.483       .  S
C999       C1840   1.480       .  S
In1002     O1004   2.236       .  S
In1002     O1005   2.247       .  S
In1002     O1013   2.246       .  S
In1002     O1007   2.248       .  S
In1002     O1009   2.257       .  S
In1002     O1010   2.237       .  S
In1002     O1011   2.235       .  S
In1002     O1014   2.253       .  S
C1003      O1009   1.262       .  A
C1003      O1011   1.257       .  A
C1003      C1789   1.485       .  S
O1004      C1012   1.259       .  A
O1005      C1012   1.262       .  A
C1006      O1013   1.260       .  A
C1006      O1007   1.261       .  A
C1006      C1880   1.485       .  S
C1008      O1010   1.258       .  A
C1008      O1014   1.260       .  A
C1008      C2640   1.473       .  S
C1012      C1829   1.483       .  S
In1015     O1017   2.258       .  S
In1015     O1018   2.251       .  S
In1015     O1026   2.248       .  S
In1015     O1020   2.239       .  S
In1015     O1022   2.258       .  S
In1015     O1023   2.250       .  S
In1015     O1024   2.234       .  S
In1015     O1027   2.235       .  S
C1016      O1022   1.259       .  A
C1016      O1024   1.257       .  A
C1016      C1729   1.479       .  S
O1017      C1025   1.258       .  A
O1018      C1025   1.259       .  A
C1019      O1026   1.262       .  A
C1019      O1020   1.260       .  A
C1019      C1809   1.480       .  S
C1021      O1023   1.264       .  A
C1021      O1027   1.261       .  A
C1021      C1780   1.479       .  S
C1025      C1749   1.486       .  S
In1028     O1030   2.242       .  S
In1028     O1031   2.251       .  S
In1028     O1039   2.253       .  S
In1028     O1033   2.244       .  S
In1028     O1035   2.240       .  S
In1028     O1036   2.242       .  S
In1028     O1037   2.252       .  S
In1028     O1040   2.237       .  S
C1029      O1035   1.259       .  A
C1029      O1037   1.259       .  A
C1029      C1800   1.483       .  S
O1030      C1038   1.259       .  A
O1031      C1038   1.260       .  A
C1032      O1039   1.261       .  A
C1032      O1033   1.259       .  A
C1032      C1709   1.484       .  S
C1034      O1036   1.262       .  A
C1034      O1040   1.259       .  A
C1034      C1769   1.479       .  S
C1038      C2740   1.481       .  S
In1041     O1043   2.225       .  S
In1041     O1044   2.253       .  S
In1041     O1052   2.231       .  S
In1041     O1046   2.235       .  S
In1041     O1048   2.245       .  S
In1041     O1049   2.230       .  S
In1041     O1050   2.239       .  S
In1041     O1053   2.246       .  S
C1042      O1048   1.262       .  A
C1042      O1050   1.260       .  A
C1042      C1740   1.479       .  S
O1043      C1051   1.258       .  A
O1044      C1051   1.262       .  A
C1045      O1052   1.259       .  A
C1045      O1046   1.259       .  A
C1045      C1680   1.475       .  S
C1047      O1049   1.260       .  A
C1047      O1053   1.259       .  A
C1047      C1660   1.479       .  S
C1051      C1689   1.476       .  S
In1054     O1056   2.239       .  S
In1054     O1057   2.252       .  S
In1054     O1065   2.260       .  S
In1054     O1059   2.239       .  S
In1054     O1061   2.245       .  S
In1054     O1062   2.255       .  S
In1054     O1063   2.239       .  S
In1054     O1066   2.239       .  S
C1055      O1061   1.260       .  A
C1055      O1063   1.262       .  A
C1055      C1629   1.485       .  S
O1056      C1064   1.258       .  A
O1057      C1064   1.261       .  A
C1058      O1065   1.260       .  A
C1058      O1059   1.259       .  A
C1058      C1720   1.485       .  S
C1060      O1062   1.260       .  A
C1060      O1066   1.259       .  A
C1060      C4380   1.476       .  S
C1064      C1700   1.480       .  S
In1067     O1069   2.236       .  S
In1067     O1070   2.237       .  S
In1067     O1078   2.250       .  S
In1067     O1072   2.232       .  S
In1067     O1074   2.230       .  S
In1067     O1075   2.253       .  S
In1067     O1076   2.242       .  S
In1067     O1079   2.233       .  S
C1068      O1074   1.260       .  A
C1068      O1076   1.260       .  A
C1068      C2000   1.470       .  S
O1069      C1077   1.259       .  A
O1070      C1077   1.262       .  A
C1071      O1078   1.260       .  A
C1071      O1072   1.258       .  A
C1071      C1669   1.477       .  S
C1073      O1075   1.261       .  A
C1073      O1079   1.257       .  A
C1073      C1620   1.479       .  S
C1077      C2920   1.481       .  S
In1080     O1082   2.248       .  S
In1080     O1083   2.238       .  S
In1080     O1091   2.250       .  S
In1080     O1085   2.244       .  S
In1080     O1087   2.238       .  S
In1080     O1088   2.254       .  S
In1080     O1089   2.254       .  S
In1080     O1092   2.248       .  S
C1081      O1087   1.259       .  A
C1081      O1089   1.261       .  A
C1081      C1640   1.485       .  S
O1082      C1090   1.259       .  A
O1083      C1090   1.259       .  A
C1084      O1091   1.262       .  A
C1084      O1085   1.260       .  A
C1084      C1969   1.486       .  S
C1086      O1088   1.259       .  A
C1086      O1092   1.257       .  A
C1086      C1609   1.485       .  S
C1090      C4280   1.476       .  S
In1093     O1095   2.237       .  S
In1093     O1096   2.251       .  S
In1093     O1104   2.258       .  S
In1093     O1098   2.243       .  S
In1093     O1100   2.259       .  S
In1093     O1101   2.263       .  S
In1093     O1102   2.239       .  S
In1093     O1105   2.247       .  S
C1094      O1100   1.259       .  A
C1094      O1102   1.260       .  A
C1094      C1549   1.482       .  S
O1095      C1103   1.260       .  A
O1096      C1103   1.260       .  A
C1097      O1104   1.262       .  A
C1097      O1098   1.258       .  A
C1097      C1569   1.484       .  S
C1099      O1101   1.259       .  A
C1099      O1105   1.258       .  A
C1099      C2200   1.482       .  S
C1103      C1589   1.475       .  S
In1106     O1108   2.230       .  S
In1106     O1109   2.251       .  S
In1106     O1117   2.250       .  S
In1106     O1111   2.242       .  S
In1106     O1113   2.239       .  S
In1106     O1114   2.241       .  S
In1106     O1115   2.236       .  S
In1106     O1118   2.239       .  S
C1107      O1113   1.261       .  A
C1107      O1115   1.260       .  A
C1107      C1509   1.469       .  S
O1108      C1116   1.257       .  A
O1109      C1116   1.261       .  A
C1110      O1117   1.261       .  A
C1110      O1111   1.258       .  A
C1110      C1540   1.485       .  S
C1112      O1114   1.261       .  A
C1112      O1118   1.261       .  A
C1112      C1760   1.478       .  S
C1116      C1600   1.477       .  S
In1119     O1121   2.254       .  S
In1119     O1122   2.242       .  S
In1119     O1130   2.256       .  S
In1119     O1124   2.244       .  S
In1119     O1126   2.253       .  S
In1119     O1127   2.261       .  S
In1119     O1128   2.233       .  S
In1119     O1131   2.225       .  S
C1120      O1126   1.261       .  A
C1120      O1128   1.258       .  A
C1120      C1560   1.478       .  S
O1121      C1129   1.260       .  A
O1122      C1129   1.259       .  A
C1123      O1130   1.261       .  A
C1123      O1124   1.260       .  A
C1123      C1480   1.486       .  S
C1125      O1127   1.262       .  A
C1125      O1131   1.257       .  A
C1125      C1489   1.484       .  S
C1129      C2060   1.482       .  S
In1132     O1134   2.229       .  S
In1132     O1135   2.260       .  S
In1132     O1143   2.255       .  S
In1132     O1137   2.239       .  S
In1132     O1139   2.269       .  S
In1132     O1140   2.257       .  S
In1132     O1141   2.234       .  S
In1132     O1144   2.239       .  S
C1133      O1139   1.262       .  A
C1133      O1141   1.260       .  A
C1133      C1449   1.482       .  S
O1134      C1142   1.256       .  A
O1135      C1142   1.260       .  A
C1136      O1143   1.259       .  A
C1136      O1137   1.261       .  A
C1136      C1529   1.486       .  S
C1138      O1140   1.260       .  A
C1138      O1144   1.260       .  A
C1138      C1500   1.485       .  S
C1142      C3360   1.480       .  S
In1145     O1147   2.238       .  S
In1145     O1148   2.253       .  S
In1145     O1156   2.240       .  S
In1145     O1150   2.250       .  S
In1145     O1152   2.252       .  S
In1145     O1153   2.236       .  S
In1145     O1154   2.237       .  S
In1145     O1157   2.245       .  S
C1146      O1152   1.263       .  A
C1146      O1154   1.260       .  A
C1146      C1460   1.483       .  S
O1147      C1155   1.258       .  A
O1148      C1155   1.259       .  A
C1149      O1156   1.257       .  A
C1149      O1150   1.262       .  A
C1149      C1420   1.484       .  S
C1151      O1153   1.260       .  A
C1151      O1157   1.260       .  A
C1151      C3120   1.478       .  S
C1155      C1440   1.476       .  S
In1158     O1160   2.243       .  S
In1158     O1161   2.242       .  S
In1158     O1169   2.248       .  S
In1158     O1163   2.241       .  S
In1158     O1165   2.234       .  S
In1158     O1166   2.238       .  S
In1158     O1167   2.234       .  S
In1158     O1170   2.252       .  S
C1159      O1165   1.262       .  A
C1159      O1167   1.260       .  A
C1159      C1389   1.477       .  S
O1160      C1168   1.259       .  A
O1161      C1168   1.260       .  A
C1162      O1169   1.259       .  A
C1162      O1163   1.256       .  A
C1162      C1469   1.483       .  S
C1164      O1166   1.261       .  A
C1164      O1170   1.260       .  A
C1164      C1860   1.484       .  S
C1168      C1429   1.479       .  S
In1171     O1173   2.247       .  S
In1171     O1174   2.240       .  S
In1171     O1182   2.267       .  S
In1171     O1176   2.234       .  S
In1171     O1178   2.231       .  S
In1171     O1179   2.228       .  S
In1171     O1180   2.253       .  S
In1171     O1183   2.256       .  S
C1172      O1178   1.260       .  A
C1172      O1180   1.261       .  A
C1172      C1349   1.482       .  S
O1173      C1181   1.261       .  A
O1174      C1181   1.259       .  A
C1175      O1182   1.259       .  A
C1175      O1176   1.255       .  A
C1175      C1409   1.477       .  S
C1177      O1179   1.259       .  A
C1177      O1183   1.262       .  A
C1177      C1369   1.474       .  S
C1181      C2240   1.481       .  S
In1184     O1186   2.261       .  S
In1184     O1187   2.242       .  S
In1184     O1195   2.263       .  S
In1184     O1189   2.228       .  S
In1184     O1191   2.246       .  S
In1184     O1192   2.265       .  S
In1184     O1193   2.239       .  S
In1184     O1196   2.233       .  S
C1185      O1191   1.259       .  A
C1185      O1193   1.262       .  A
C1185      C1400   1.483       .  S
O1186      C1194   1.261       .  A
O1187      C1194   1.257       .  A
C1188      O1195   1.262       .  A
C1188      O1189   1.256       .  A
C1188      C1329   1.482       .  S
C1190      O1192   1.261       .  A
C1190      O1196   1.255       .  A
C1190      C1380   1.483       .  S
C1194      C1960   1.485       .  S
In1197     O1199   2.258       .  S
In1197     O1200   2.226       .  S
In1197     O1208   2.249       .  S
In1197     O1202   2.226       .  S
In1197     O1204   2.246       .  S
In1197     O1205   2.260       .  S
In1197     O1206   2.238       .  S
In1197     O1209   2.241       .  S
C1198      O1204   1.259       .  A
C1198      O1206   1.260       .  A
C1198      C1289   1.482       .  S
O1199      C1207   1.263       .  A
O1200      C1207   1.258       .  A
C1201      O1208   1.263       .  A
C1201      O1202   1.261       .  A
C1201      C1580   1.477       .  S
C1203      O1205   1.259       .  A
C1203      O1209   1.258       .  A
C1203      C1309   1.478       .  S
C1207      C3240   1.483       .  S
In1210     O1212   2.250       .  S
In1210     O1213   2.247       .  S
In1210     O1221   2.258       .  S
In1210     O1215   2.236       .  S
In1210     O1217   2.250       .  S
In1210     O1218   2.244       .  S
In1210     O1219   2.242       .  S
In1210     O1222   2.250       .  S
C1211      O1217   1.261       .  A
C1211      O1219   1.259       .  A
C1211      C1520   1.486       .  S
O1212      C1220   1.258       .  A
O1213      C1220   1.260       .  A
C1214      O1221   1.260       .  A
C1214      O1215   1.259       .  A
C1214      C1280   1.484       .  S
C1216      O1218   1.260       .  A
C1216      O1222   1.259       .  A
C1216      C1320   1.485       .  S
C1220      C1649   1.484       .  S
In1223     O1225   2.238       .  S
In1223     O1226   2.255       .  S
In1223     O1234   2.252       .  S
In1223     O1228   2.255       .  S
In1223     O1230   2.243       .  S
In1223     O1231   2.261       .  S
In1223     O1232   2.240       .  S
In1223     O1235   2.247       .  S
C1224      O1230   1.263       .  A
C1224      O1232   1.261       .  A
C1224      C1300   1.480       .  S
O1225      C1233   1.258       .  A
O1226      C1233   1.262       .  A
C1227      O1234   1.258       .  A
C1227      O1228   1.259       .  A
C1227      C1340   1.483       .  S
C1229      O1231   1.260       .  A
C1229      O1235   1.259       .  A
C1229      C3060   1.479       .  S
C1233      C1249   1.479       .  S
In1236     O1238   2.237       .  S
In1236     O1239   2.252       .  S
In1236     O1247   2.238       .  S
In1236     O1241   2.254       .  S
In1236     O1243   2.244       .  S
In1236     O1244   2.234       .  S
In1236     O1245   2.241       .  S
In1236     O1248   2.257       .  S
C1237      O1243   1.262       .  A
C1237      O1245   1.259       .  A
C1237      C1360   1.477       .  S
O1238      C1246   1.259       .  A
O1239      C1246   1.262       .  A
C1240      O1247   1.260       .  A
C1240      O1241   1.261       .  A
C1240      C1269   1.482       .  S
C1242      O1244   1.259       .  A
C1242      O1248   1.259       .  A
C1242      C2329   1.479       .  S
C1246      C1260   1.478       .  S
C1249      C1250   1.415       .  A
C1249      C1254   1.405       .  A
C1250      C1251   1.400       .  A
C1250     Br1266   1.922       .  S
C1251      C1252   1.400       .  A
C1251      H1255   1.084       .  S
C1252      C1256   1.475       .  S
C1252      C1253   1.405       .  A
C1253      C1254   1.398       .  A
C1253     Br1265   1.918       .  S
C1254      H1257   1.083       .  S
C1256      C1258   1.400       .  A
C1256      C1262   1.405       .  A
C1258      C1259   1.399       .  A
C1258      H1263   1.084       .  S
C1259      C1260   1.414       .  A
C1259     Br1267   1.921       .  S
C1260      C1261   1.406       .  A
C1261      C1262   1.399       .  A
C1261      H1264   1.084       .  S
C1262     Br1268   1.918       .  S
C1269      C1270   1.414       .  A
C1269      C1274   1.407       .  A
C1270      C1271   1.400       .  A
C1270     Br1286   1.919       .  S
C1271      C1272   1.402       .  A
C1271      H1275   1.084       .  S
C1272      C1276   1.477       .  S
C1272      C1273   1.405       .  A
C1273      C1274   1.397       .  A
C1273     Br1285   1.919       .  S
C1274      H1277   1.083       .  S
C1276      C1278   1.401       .  A
C1276      C1282   1.405       .  A
C1278      C1279   1.401       .  A
C1278      H1283   1.084       .  S
C1279      C1280   1.416       .  A
C1279     Br1287   1.920       .  S
C1280      C1281   1.408       .  A
C1281      C1282   1.396       .  A
C1281      H1284   1.083       .  S
C1282     Br1288   1.920       .  S
C1289      C1290   1.418       .  A
C1289      C1294   1.406       .  A
C1290      C1291   1.401       .  A
C1290     Br1306   1.921       .  S
C1291      C1292   1.400       .  A
C1291      H1295   1.083       .  S
C1292      C1296   1.473       .  S
C1292      C1293   1.404       .  A
C1293      C1294   1.395       .  A
C1293     Br1305   1.919       .  S
C1294      H1297   1.083       .  S
C1296      C1298   1.400       .  A
C1296      C1302   1.404       .  A
C1298      C1299   1.399       .  A
C1298      H1303   1.084       .  S
C1299      C1300   1.415       .  A
C1299     Br1307   1.920       .  S
C1300      C1301   1.407       .  A
C1301      C1302   1.398       .  A
C1301      H1304   1.083       .  S
C1302     Br1308   1.918       .  S
C1309      C1310   1.414       .  A
C1309      C1314   1.405       .  A
C1310      C1311   1.400       .  A
C1310     Br1326   1.919       .  S
C1311      C1312   1.400       .  A
C1311      H1315   1.084       .  S
C1312      C1316   1.476       .  S
C1312      C1313   1.407       .  A
C1313      C1314   1.397       .  A
C1313     Br1325   1.920       .  S
C1314      H1317   1.083       .  S
C1316      C1318   1.400       .  A
C1316      C1322   1.406       .  A
C1318      C1319   1.402       .  A
C1318      H1323   1.083       .  S
C1319      C1320   1.418       .  A
C1319     Br1327   1.920       .  S
C1320      C1321   1.406       .  A
C1321      C1322   1.395       .  A
C1321      H1324   1.084       .  S
C1322     Br1328   1.922       .  S
C1329      C1330   1.416       .  A
C1329      C1334   1.406       .  A
C1330      C1331   1.398       .  A
C1330     Br1346   1.923       .  S
C1331      C1332   1.401       .  A
C1331      H1335   1.084       .  S
C1332      C1336   1.482       .  S
C1332      C1333   1.408       .  A
C1333      C1334   1.401       .  A
C1333     Br1345   1.918       .  S
C1334      H1337   1.083       .  S
C1336      C1338   1.402       .  A
C1336      C1342   1.408       .  A
C1338      C1339   1.400       .  A
C1338      H1343   1.084       .  S
C1339      C1340   1.415       .  A
C1339     Br1347   1.921       .  S
C1340      C1341   1.406       .  A
C1341      C1342   1.400       .  A
C1341      H1344   1.083       .  S
C1342     Br1348   1.920       .  S
C1349      C1350   1.415       .  A
C1349      C1354   1.406       .  A
C1350      C1351   1.401       .  A
C1350     Br1366   1.920       .  S
C1351      C1352   1.401       .  A
C1351      H1355   1.084       .  S
C1352      C1356   1.477       .  S
C1352      C1353   1.407       .  A
C1353      C1354   1.395       .  A
C1353     Br1365   1.921       .  S
C1354      H1357   1.083       .  S
C1356      C1358   1.401       .  A
C1356      C1362   1.406       .  A
C1358      C1359   1.396       .  A
C1358      H1363   1.084       .  S
C1359      C1360   1.414       .  A
C1359     Br1367   1.921       .  S
C1360      C1361   1.406       .  A
C1361      C1362   1.399       .  A
C1361      H1364   1.084       .  S
C1362     Br1368   1.918       .  S
C1369      C1370   1.411       .  A
C1369      C1374   1.403       .  A
C1370      C1371   1.402       .  A
C1370     Br1386   1.919       .  S
C1371      C1372   1.403       .  A
C1371      H1375   1.084       .  S
C1372      C1376   1.475       .  S
C1372      C1373   1.405       .  A
C1373      C1374   1.394       .  A
C1373     Br1385   1.919       .  S
C1374      H1377   1.084       .  S
C1376      C1378   1.399       .  A
C1376      C1382   1.405       .  A
C1378      C1379   1.396       .  A
C1378      H1383   1.084       .  S
C1379      C1380   1.417       .  A
C1379     Br1387   1.923       .  S
C1380      C1381   1.407       .  A
C1381      C1382   1.400       .  A
C1381      H1384   1.083       .  S
C1382     Br1388   1.917       .  S
C1389      C1390   1.414       .  A
C1389      C1394   1.406       .  A
C1390      C1391   1.397       .  A
C1390     Br1406   1.922       .  S
C1391      C1392   1.400       .  A
C1391      H1395   1.084       .  S
C1392      C1396   1.473       .  S
C1392      C1393   1.405       .  A
C1393      C1394   1.396       .  A
C1393     Br1405   1.919       .  S
C1394      H1397   1.084       .  S
C1396      C1398   1.400       .  A
C1396      C1402   1.404       .  A
C1398      C1399   1.401       .  A
C1398      H1403   1.084       .  S
C1399      C1400   1.419       .  A
C1399     Br1407   1.921       .  S
C1400      C1401   1.406       .  A
C1401      C1402   1.394       .  A
C1401      H1404   1.083       .  S
C1402     Br1408   1.920       .  S
C1409      C1410   1.413       .  A
C1409      C1414   1.406       .  A
C1410      C1411   1.396       .  A
C1410     Br1426   1.922       .  S
C1411      C1412   1.400       .  A
C1411      H1415   1.084       .  S
C1412      C1416   1.477       .  S
C1412      C1413   1.407       .  A
C1413      C1414   1.401       .  A
C1413     Br1425   1.918       .  S
C1414      H1417   1.083       .  S
C1416      C1418   1.401       .  A
C1416      C1422   1.405       .  A
C1418      C1419   1.400       .  A
C1418      H1423   1.084       .  S
C1419      C1420   1.418       .  A
C1419     Br1427   1.922       .  S
C1420      C1421   1.406       .  A
C1421      C1422   1.396       .  A
C1421      H1424   1.083       .  S
C1422     Br1428   1.919       .  S
C1429      C1430   1.414       .  A
C1429      C1434   1.407       .  A
C1430      C1431   1.400       .  A
C1430     Br1446   1.920       .  S
C1431      C1432   1.400       .  A
C1431      H1435   1.083       .  S
C1432      C1436   1.474       .  S
C1432      C1433   1.405       .  A
C1433      C1434   1.397       .  A
C1433     Br1445   1.919       .  S
C1434      H1437   1.083       .  S
C1436      C1438   1.401       .  A
C1436      C1442   1.405       .  A
C1438      C1439   1.400       .  A
C1438      H1443   1.084       .  S
C1439      C1440   1.413       .  A
C1439     Br1447   1.920       .  S
C1440      C1441   1.404       .  A
C1441      C1442   1.396       .  A
C1441      H1444   1.083       .  S
C1442     Br1448   1.918       .  S
C1449      C1450   1.415       .  A
C1449      C1454   1.404       .  A
C1450      C1451   1.406       .  A
C1450     Br1466   1.919       .  S
C1451      C1452   1.404       .  A
C1451      H1455   1.083       .  S
C1452      C1456   1.481       .  S
C1452      C1453   1.406       .  A
C1453      C1454   1.394       .  A
C1453     Br1465   1.920       .  S
C1454      H1457   1.084       .  S
C1456      C1458   1.402       .  A
C1456      C1462   1.407       .  A
C1458      C1459   1.398       .  A
C1458      H1463   1.084       .  S
C1459      C1460   1.415       .  A
C1459     Br1467   1.922       .  S
C1460      C1461   1.407       .  A
C1461      C1462   1.400       .  A
C1461      H1464   1.083       .  S
C1462     Br1468   1.917       .  S
C1469      C1470   1.417       .  A
C1469      C1474   1.406       .  A
C1470      C1471   1.400       .  A
C1470     Br1486   1.923       .  S
C1471      C1472   1.402       .  A
C1471      H1475   1.084       .  S
C1472      C1476   1.481       .  S
C1472      C1473   1.407       .  A
C1473      C1474   1.396       .  A
C1473     Br1485   1.920       .  S
C1474      H1477   1.083       .  S
C1476      C1478   1.402       .  A
C1476      C1482   1.407       .  A
C1478      C1479   1.401       .  A
C1478      H1483   1.084       .  S
C1479      C1480   1.415       .  A
C1479     Br1487   1.920       .  S
C1480      C1481   1.407       .  A
C1481      C1482   1.398       .  A
C1481      H1484   1.084       .  S
C1482     Br1488   1.921       .  S
C1489      C1490   1.417       .  A
C1489      C1494   1.409       .  A
C1490      C1491   1.395       .  A
C1490     Br1506   1.923       .  S
C1491      C1492   1.398       .  A
C1491      H1495   1.084       .  S
C1492      C1496   1.473       .  S
C1492      C1493   1.403       .  A
C1493      C1494   1.402       .  A
C1493     Br1505   1.917       .  S
C1494      H1497   1.083       .  S
C1496      C1498   1.400       .  A
C1496      C1502   1.403       .  A
C1498      C1499   1.401       .  A
C1498      H1503   1.084       .  S
C1499      C1500   1.417       .  A
C1499     Br1507   1.921       .  S
C1500      C1501   1.408       .  A
C1501      C1502   1.396       .  A
C1501      H1504   1.083       .  S
C1502     Br1508   1.919       .  S
C1509      C1510   1.409       .  A
C1509      C1514   1.401       .  A
C1510      C1511   1.399       .  A
C1510     Br1526   1.921       .  S
C1511      C1512   1.404       .  A
C1511      H1515   1.084       .  S
C1512      C1516   1.480       .  S
C1512      C1513   1.410       .  A
C1513      C1514   1.397       .  A
C1513     Br1525   1.919       .  S
C1514      H1517   1.083       .  S
C1516      C1518   1.401       .  A
C1516      C1522   1.407       .  A
C1518      C1519   1.400       .  A
C1518      H1523   1.084       .  S
C1519      C1520   1.417       .  A
C1519     Br1527   1.921       .  S
C1520      C1521   1.407       .  A
C1521      C1522   1.398       .  A
C1521      H1524   1.083       .  S
C1522     Br1528   1.920       .  S
C1529      C1530   1.419       .  A
C1529      C1534   1.407       .  A
C1530      C1531   1.403       .  A
C1530     Br1546   1.921       .  S
C1531      C1532   1.400       .  A
C1531      H1535   1.084       .  S
C1532      C1536   1.475       .  S
C1532      C1533   1.404       .  A
C1533      C1534   1.395       .  A
C1533     Br1545   1.919       .  S
C1534      H1537   1.083       .  S
C1536      C1538   1.399       .  A
C1536      C1542   1.404       .  A
C1538      C1539   1.399       .  A
C1538      H1543   1.084       .  S
C1539      C1540   1.418       .  A
C1539     Br1547   1.921       .  S
C1540      C1541   1.408       .  A
C1541      C1542   1.398       .  A
C1541      H1544   1.083       .  S
C1542     Br1548   1.918       .  S
C1549      C1550   1.416       .  A
C1549      C1554   1.405       .  A
C1550      C1551   1.403       .  A
C1550     Br1566   1.920       .  S
C1551      C1552   1.403       .  A
C1551      H1555   1.084       .  S
C1552      C1556   1.479       .  S
C1552      C1553   1.406       .  A
C1553      C1554   1.395       .  A
C1553     Br1565   1.919       .  S
C1554      H1557   1.084       .  S
C1556      C1558   1.401       .  A
C1556      C1562   1.407       .  A
C1558      C1559   1.396       .  A
C1558      H1563   1.084       .  S
C1559      C1560   1.413       .  A
C1559     Br1567   1.922       .  S
C1560      C1561   1.406       .  A
C1561      C1562   1.400       .  A
C1561      H1564   1.084       .  S
C1562     Br1568   1.917       .  S
C1569      C1570   1.416       .  A
C1569      C1574   1.407       .  A
C1570      C1571   1.400       .  A
C1570     Br1586   1.921       .  S
C1571      C1572   1.401       .  A
C1571      H1575   1.084       .  S
C1572      C1576   1.477       .  S
C1572      C1573   1.405       .  A
C1573      C1574   1.399       .  A
C1573     Br1585   1.919       .  S
C1574      H1577   1.083       .  S
C1576      C1578   1.404       .  A
C1576      C1582   1.405       .  A
C1578      C1579   1.402       .  A
C1578      H1583   1.083       .  S
C1579      C1580   1.412       .  A
C1579     Br1587   1.920       .  S
C1580      C1581   1.405       .  A
C1581      C1582   1.395       .  A
C1581      H1584   1.084       .  S
C1582     Br1588   1.919       .  S
C1589      C1590   1.412       .  A
C1589      C1594   1.404       .  A
C1590      C1591   1.399       .  A
C1590     Br1606   1.919       .  S
C1591      C1592   1.402       .  A
C1591      H1595   1.084       .  S
C1592      C1596   1.474       .  S
C1592      C1593   1.406       .  A
C1593      C1594   1.395       .  A
C1593     Br1605   1.920       .  S
C1594      H1597   1.084       .  S
C1596      C1598   1.400       .  A
C1596      C1602   1.406       .  A
C1598      C1599   1.396       .  A
C1598      H1603   1.084       .  S
C1599      C1600   1.414       .  A
C1599     Br1607   1.922       .  S
C1600      C1601   1.406       .  A
C1601      C1602   1.398       .  A
C1601      H1604   1.083       .  S
C1602     Br1608   1.918       .  S
C1609      C1610   1.416       .  A
C1609      C1614   1.408       .  A
C1610      C1611   1.398       .  A
C1610     Br1626   1.921       .  S
C1611      C1612   1.399       .  A
C1611      H1615   1.084       .  S
C1612      C1616   1.475       .  S
C1612      C1613   1.406       .  A
C1613      C1614   1.399       .  A
C1613     Br1625   1.919       .  S
C1614      H1617   1.083       .  S
C1616      C1618   1.400       .  A
C1616      C1622   1.405       .  A
C1618      C1619   1.397       .  A
C1618      H1623   1.084       .  S
C1619      C1620   1.415       .  A
C1619     Br1627   1.923       .  S
C1620      C1621   1.406       .  A
C1621      C1622   1.399       .  A
C1621      H1624   1.085       .  S
C1622     Br1628   1.917       .  S
C1629      C1630   1.418       .  A
C1629      C1634   1.407       .  A
C1630      C1631   1.401       .  A
C1630     Br1646   1.921       .  S
C1631      C1632   1.400       .  A
C1631      H1635   1.084       .  S
C1632      C1636   1.475       .  S
C1632      C1633   1.405       .  A
C1633      C1634   1.396       .  A
C1633     Br1645   1.919       .  S
C1634      H1637   1.083       .  S
C1636      C1638   1.399       .  A
C1636      C1642   1.405       .  A
C1638      C1639   1.398       .  A
C1638      H1643   1.084       .  S
C1639      C1640   1.417       .  A
C1639     Br1647   1.922       .  S
C1640      C1641   1.409       .  A
C1641      C1642   1.400       .  A
C1641      H1644   1.082       .  S
C1642     Br1648   1.919       .  S
C1649      C1650   1.417       .  A
C1649      C1654   1.408       .  A
C1650      C1651   1.398       .  A
C1650     Br1666   1.921       .  S
C1651      C1652   1.400       .  A
C1651      H1655   1.084       .  S
C1652      C1656   1.476   1_565  S
C1652      C1653   1.406       .  A
C1653      C1654   1.398       .  A
C1653     Br1665   1.920       .  S
C1654      H1657   1.084       .  S
C1656      C1658   1.402       .  A
C1656      C1662   1.407       .  A
C1658      C1659   1.401       .  A
C1658      H1663   1.084       .  S
C1659      C1660   1.415       .  A
C1659     Br1667   1.921       .  S
C1660      C1661   1.404       .  A
C1661      C1662   1.393       .  A
C1661      H1664   1.084       .  S
C1662     Br1668   1.920       .  S
C1669      C1670   1.413       .  A
C1669      C1674   1.406       .  A
C1670      C1671   1.398       .  A
C1670     Br1686   1.919       .  S
C1671      C1672   1.401       .  A
C1671      H1675   1.084       .  S
C1672      C1676   1.471       .  S
C1672      C1673   1.405       .  A
C1673      C1674   1.395       .  A
C1673     Br1685   1.920       .  S
C1674      H1677   1.084       .  S
C1676      C1678   1.401       .  A
C1676      C1682   1.405       .  A
C1678      C1679   1.398       .  A
C1678      H1683   1.084       .  S
C1679      C1680   1.413       .  A
C1679     Br1687   1.921       .  S
C1680      C1681   1.406       .  A
C1681      C1682   1.394       .  A
C1681      H1684   1.083       .  S
C1682     Br1688   1.919       .  S
C1689      C1690   1.414       .  A
C1689      C1694   1.406       .  A
C1690      C1691   1.396       .  A
C1690     Br1706   1.922       .  S
C1691      C1692   1.399       .  A
C1691      H1695   1.084       .  S
C1692      C1696   1.473       .  S
C1692      C1693   1.406       .  A
C1693      C1694   1.399       .  A
C1693     Br1705   1.918       .  S
C1694      H1697   1.083       .  S
C1696      C1698   1.399       .  A
C1696      C1702   1.405       .  A
C1698      C1699   1.398       .  A
C1698      H1703   1.084       .  S
C1699      C1700   1.415       .  A
C1699     Br1707   1.922       .  S
C1700      C1701   1.406       .  A
C1701      C1702   1.398       .  A
C1701      H1704   1.084       .  S
C1702     Br1708   1.918       .  S
C1709      C1710   1.415       .  A
C1709      C1714   1.406       .  A
C1710      C1711   1.399       .  A
C1710     Br1726   1.922       .  S
C1711      C1712   1.403       .  A
C1711      H1715   1.084       .  S
C1712      C1716   1.485       .  S
C1712      C1713   1.409       .  A
C1713      C1714   1.400       .  A
C1713     Br1725   1.919       .  S
C1714      H1717   1.083       .  S
C1716      C1718   1.404       .  A
C1716      C1722   1.408       .  A
C1718      C1719   1.401       .  A
C1718      H1723   1.083       .  S
C1719      C1720   1.415       .  A
C1719     Br1727   1.920       .  S
C1720      C1721   1.406       .  A
C1721      C1722   1.398       .  A
C1721      H1724   1.084       .  S
C1722     Br1728   1.920       .  S
C1729      C1730   1.415       .  A
C1729      C1734   1.406       .  A
C1730      C1731   1.401       .  A
C1730     Br1746   1.920       .  S
C1731      C1732   1.401       .  A
C1731      H1735   1.084       .  S
C1732      C1736   1.473       .  S
C1732      C1733   1.405       .  A
C1733      C1734   1.394       .  A
C1733     Br1745   1.920       .  S
C1734      H1737   1.083       .  S
C1736      C1738   1.400       .  A
C1736      C1742   1.405       .  A
C1738      C1739   1.398       .  A
C1738      H1743   1.084       .  S
C1739      C1740   1.414       .  A
C1739     Br1747   1.921       .  S
C1740      C1741   1.406       .  A
C1741      C1742   1.398       .  A
C1741      H1744   1.083       .  S
C1742     Br1748   1.919       .  S
C1749      C1750   1.417       .  A
C1749      C1754   1.407       .  A
C1750      C1751   1.401       .  A
C1750     Br1766   1.921       .  S
C1751      C1752   1.402   1_545  A
C1751      H1755   1.084   1_545  S
C1752      C1756   1.481       .  S
C1752      C1753   1.407   1_565  A
C1753      C1754   1.398       .  A
C1753     Br1765   1.920   1_545  S
C1754      H1757   1.083       .  S
C1756      C1758   1.403       .  A
C1756      C1762   1.408       .  A
C1758      C1759   1.400       .  A
C1758      H1763   1.084       .  S
C1759      C1760   1.412       .  A
C1759     Br1767   1.920       .  S
C1760      C1761   1.405       .  A
C1761      C1762   1.398       .  A
C1761      H1764   1.083       .  S
C1762     Br1768   1.920       .  S
C1769      C1770   1.415       .  A
C1769      C1774   1.406       .  A
C1770      C1771   1.399       .  A
C1770     Br1786   1.921       .  S
C1771      C1772   1.400       .  A
C1771      H1775   1.084       .  S
C1772      C1776   1.473       .  S
C1772      C1773   1.405       .  A
C1773      C1774   1.396       .  A
C1773     Br1785   1.918       .  S
C1774      H1777   1.084       .  S
C1776      C1778   1.400       .  A
C1776      C1782   1.405       .  A
C1778      C1779   1.400       .  A
C1778      H1783   1.084       .  S
C1779      C1780   1.414       .  A
C1779     Br1787   1.919       .  S
C1780      C1781   1.406       .  A
C1781      C1782   1.397       .  A
C1781      H1784   1.083       .  S
C1782     Br1788   1.920       .  S
C1789      C1790   1.418       .  A
C1789      C1794   1.408       .  A
C1790      C1791   1.398       .  A
C1790     Br1806   1.922       .  S
C1791      C1792   1.399       .  A
C1791      H1795   1.084       .  S
C1792      C1796   1.475       .  S
C1792      C1793   1.405       .  A
C1793      C1794   1.400       .  A
C1793     Br1805   1.918       .  S
C1794      H1797   1.084       .  S
C1796      C1798   1.401       .  A
C1796      C1802   1.404       .  A
C1798      C1799   1.403       .  A
C1798      H1803   1.084       .  S
C1799      C1800   1.417       .  A
C1799     Br1807   1.921       .  S
C1800      C1801   1.406       .  A
C1801      C1802   1.395       .  A
C1801      H1804   1.084       .  S
C1802     Br1808   1.919       .  S
C1809      C1810   1.414       .  A
C1809      C1814   1.406       .  A
C1810      C1811   1.400       .  A
C1810     Br1826   1.920       .  S
C1811      C1812   1.401       .  A
C1811      H1815   1.083       .  S
C1812      C1816   1.477       .  S
C1812      C1813   1.406       .  A
C1813      C1814   1.399       .  A
C1813     Br1825   1.917       .  S
C1814      H1817   1.084       .  S
C1816      C1818   1.401       .  A
C1816      C1822   1.405       .  A
C1818      C1819   1.401       .  A
C1818      H1823   1.084       .  S
C1819      C1820   1.415       .  A
C1819     Br1827   1.921       .  S
C1820      C1821   1.406       .  A
C1821      C1822   1.400       .  A
C1821      H1824   1.083       .  S
C1822     Br1828   1.917       .  S
C1829      C1830   1.416       .  A
C1829      C1834   1.409       .  A
C1830      C1831   1.397       .  A
C1830     Br1846   1.922       .  S
C1831      C1832   1.400       .  A
C1831      H1835   1.084       .  S
C1832      C1836   1.474       .  S
C1832      C1833   1.403       .  A
C1833      C1834   1.399       .  A
C1833     Br1845   1.918       .  S
C1834      H1837   1.083       .  S
C1836      C1838   1.401       .  A
C1836      C1842   1.404       .  A
C1838      C1839   1.401       .  A
C1838      H1843   1.084       .  S
C1839      C1840   1.416       .  A
C1839     Br1847   1.921       .  S
C1840      C1841   1.406       .  A
C1841      C1842   1.394       .  A
C1841      H1844   1.084       .  S
C1842     Br1848   1.919       .  S
C1849      C1850   1.418       .  A
C1849      C1854   1.408       .  A
C1850      C1851   1.397       .  A
C1850     Br1866   1.923       .  S
C1851      C1852   1.399       .  A
C1851      H1855   1.084       .  S
C1852      C1856   1.477       .  S
C1852      C1853   1.406       .  A
C1853      C1854   1.400       .  A
C1853     Br1865   1.918       .  S
C1854      H1857   1.084       .  S
C1856      C1858   1.402       .  A
C1856      C1862   1.405       .  A
C1858      C1859   1.401       .  A
C1858      H1863   1.084       .  S
C1859      C1860   1.416       .  A
C1859     Br1867   1.921       .  S
C1860      C1861   1.407       .  A
C1861      C1862   1.396       .  A
C1861      H1864   1.084       .  S
C1862     Br1868   1.919       .  S
C1869      C1870   1.416       .  A
C1869      C1874   1.407       .  A
C1870      C1871   1.398       .  A
C1870     Br1886   1.923       .  S
C1871      C1872   1.402       .  A
C1871      H1875   1.084       .  S
C1872      C1876   1.485       .  S
C1872      C1873   1.409       .  A
C1873      C1874   1.401       .  A
C1873     Br1885   1.919       .  S
C1874      H1877   1.083       .  S
C1876      C1878   1.402       .  A
C1876      C1882   1.409       .  A
C1878      C1879   1.400       .  A
C1878      H1883   1.084       .  S
C1879      C1880   1.416       .  A
C1879     Br1887   1.921       .  S
C1880      C1881   1.407       .  A
C1881      C1882   1.399       .  A
C1881      H1884   1.083       .  S
C1882     Br1888   1.920       .  S
C1889      C1890   1.415       .  A
C1889      C1894   1.406       .  A
C1890      C1891   1.401       .  A
C1890     Br1906   1.920       .  S
C1891      C1892   1.400       .  A
C1891      H1895   1.084       .  S
C1892      C1896   1.474       .  S
C1892      C1893   1.405       .  A
C1893      C1894   1.398       .  A
C1893     Br1905   1.920       .  S
C1894      H1897   1.083       .  S
C1896      C1898   1.401       .  A
C1896      C1902   1.405       .  A
C1898      C1899   1.401       .  A
C1898      H1903   1.084       .  S
C1899      C1900   1.415       .  A
C1899     Br1907   1.920       .  S
C1900      C1901   1.406       .  A
C1901      C1902   1.397       .  A
C1901      H1904   1.084       .  S
C1902     Br1908   1.919       .  S
C1909      C1910   1.416       .  A
C1909      C1914   1.405       .  A
C1910      C1911   1.401       .  A
C1910     Br1926   1.921       .  S
C1911      C1912   1.401       .  A
C1911      H1915   1.084       .  S
C1912      C1916   1.472       .  S
C1912      C1913   1.404       .  A
C1913      C1914   1.393       .  A
C1913     Br1925   1.919       .  S
C1914      H1917   1.083       .  S
C1916      C1918   1.400       .  A
C1916      C1922   1.405       .  A
C1918      C1919   1.398       .  A
C1918      H1923   1.084       .  S
C1919      C1920   1.415       .  A
C1919     Br1927   1.922       .  S
C1920      C1921   1.405       .  A
C1921      C1922   1.397       .  A
C1921      H1924   1.084       .  S
C1922     Br1928   1.918       .  S
C1929      C1930   1.413       .  A
C1929      C1934   1.405       .  A
C1930      C1931   1.399       .  A
C1930     Br1946   1.921       .  S
C1931      C1932   1.401       .  A
C1931      H1935   1.084       .  S
C1932      C1936   1.475       .  S
C1932      C1933   1.406       .  A
C1933      C1934   1.400       .  A
C1933     Br1945   1.917       .  S
C1934      H1937   1.083       .  S
C1936      C1938   1.400       .  A
C1936      C1942   1.405       .  A
C1938      C1939   1.401       .  A
C1938      H1943   1.084       .  S
C1939      C1940   1.416       .  A
C1939     Br1947   1.921       .  S
C1940      C1941   1.407       .  A
C1941      C1942   1.396       .  A
C1941      H1944   1.084       .  S
C1942     Br1948   1.919       .  S
C1949      C1950   1.417       .  A
C1949      C1954   1.407       .  A
C1950      C1951   1.401       .  A
C1950     Br1966   1.920       .  S
C1951      C1952   1.402       .  A
C1951      H1955   1.084       .  S
C1952      C1956   1.483       .  S
C1952      C1953   1.407       .  A
C1953      C1954   1.400       .  A
C1953     Br1965   1.918       .  S
C1954      H1957   1.084       .  S
C1956      C1958   1.401       .  A
C1956      C1962   1.407       .  A
C1958      C1959   1.399       .  A
C1958      H1963   1.084       .  S
C1959      C1960   1.417       .  A
C1959     Br1967   1.922       .  S
C1960      C1961   1.407       .  A
C1961      C1962   1.401       .  A
C1961      H1964   1.083       .  S
C1962     Br1968   1.917       .  S
C1969      C1970   1.416       .  A
C1969      C1974   1.407       .  A
C1970      C1971   1.401       .  A
C1970     Br1986   1.922       .  S
C1971      C1972   1.402       .  A
C1971      H1975   1.084       .  S
C1972      C1976   1.484       .  S
C1972      C1973   1.407       .  A
C1973      C1974   1.401       .  A
C1973     Br1985   1.918       .  S
C1974      H1977   1.083       .  S
C1976      C1978   1.402       .  A
C1976      C1982   1.408       .  A
C1978      C1979   1.400       .  A
C1978      H1983   1.083       .  S
C1979      C1980   1.414       .  A
C1979     Br1987   1.922       .  S
C1980      C1981   1.406       .  A
C1981      C1982   1.403       .  A
C1981      H1984   1.084       .  S
C1982     Br1988   1.918       .  S
C1989      C1990   1.414       .  A
C1989      C1994   1.405       .  A
C1990      C1991   1.395       .  A
C1990     Br2006   1.922       .  S
C1991      C1992   1.399       .  A
C1991      H1995   1.084       .  S
C1992      C1996   1.469       .  S
C1992      C1993   1.405       .  A
C1993      C1994   1.397       .  A
C1993     Br2005   1.919       .  S
C1994      H1997   1.083       .  S
C1996      C1998   1.401       .  A
C1996      C2002   1.405       .  A
C1998      C1999   1.397       .  A
C1998      H2003   1.084       .  S
C1999      C2000   1.411       .  A
C1999     Br2007   1.920       .  S
C2000      C2001   1.403       .  A
C2001      C2002   1.394       .  A
C2001      H2004   1.084       .  S
C2002     Br2008   1.919       .  S
C2009      C2010   1.415       .  A
C2009      C2014   1.407       .  A
C2010      C2011   1.401       .  A
C2010     Br2026   1.920       .  S
C2011      C2012   1.401       .  A
C2011      H2015   1.084       .  S
C2012      C2016   1.483       .  S
C2012      C2013   1.408       .  A
C2013      C2014   1.401       .  A
C2013     Br2025   1.919       .  S
C2014      H2017   1.083       .  S
C2016      C2018   1.400       .  A
C2016      C2022   1.407       .  A
C2018      C2019   1.399       .  A
C2018      H2023   1.084       .  S
C2019      C2020   1.417       .  A
C2019     Br2027   1.922       .  S
C2020      C2021   1.408       .  A
C2021      C2022   1.403       .  A
C2021      H2024   1.083       .  S
C2022     Br2028   1.917       .  S
C2029      C2030   1.411       .  A
C2029      C2034   1.406       .  A
C2030      C2031   1.397       .  A
C2030     Br2046   1.921       .  S
C2031      C2032   1.402       .  A
C2031      H2035   1.084       .  S
C2032      C2036   1.485       .  S
C2032      C2033   1.410       .  A
C2033      C2034   1.403       .  A
C2033     Br2045   1.919       .  S
C2034      H2037   1.084       .  S
C2036      C2038   1.403       .  A
C2036      C2042   1.407       .  A
C2038      C2039   1.403       .  A
C2038      H2043   1.083       .  S
C2039      C2040   1.418       .  A
C2039     Br2047   1.920       .  S
C2040      C2041   1.407       .  A
C2041      C2042   1.398       .  A
C2041      H2044   1.083       .  S
C2042     Br2048   1.920       .  S
C2049      C2050   1.413       .  A
C2049      C2054   1.406       .  A
C2050      C2051   1.398       .  A
C2050     Br2066   1.920       .  S
C2051      C2052   1.402       .  A
C2051      H2055   1.084       .  S
C2052      C2056   1.480       .  S
C2052      C2053   1.408       .  A
C2053      C2054   1.399       .  A
C2053     Br2065   1.920       .  S
C2054      H2057   1.083       .  S
C2056      C2058   1.403       .  A
C2056      C2062   1.408       .  A
C2058      C2059   1.402       .  A
C2058      H2063   1.084       .  S
C2059      C2060   1.414       .  A
C2059     Br2067   1.920       .  S
C2060      C2061   1.405       .  A
C2061      C2062   1.396       .  A
C2061      H2064   1.084       .  S
C2062     Br2068   1.921       .  S
C2069      C2070   1.416       .  A
C2069      C2074   1.407       .  A
C2070      C2071   1.398       .  A
C2070     Br2086   1.923       .  S
C2071      C2072   1.401       .  A
C2071      H2075   1.084       .  S
C2072      C2076   1.481       .  S
C2072      C2073   1.407       .  A
C2073      C2074   1.400       .  A
C2073     Br2085   1.917       .  S
C2074      H2077   1.084       .  S
C2076      C2078   1.402       .  A
C2076      C2082   1.407       .  A
C2078      C2079   1.401       .  A
C2078      H2083   1.084       .  S
C2079      C2080   1.418       .  A
C2079     Br2087   1.922       .  S
C2080      C2081   1.406       .  A
C2081      C2082   1.398       .  A
C2081      H2084   1.083       .  S
C2082     Br2088   1.918       .  S
C2089      C2090   1.415       .  A
C2089      C2094   1.408       .  A
C2090      C2091   1.400       .  A
C2090     Br2106   1.919       .  S
C2091      C2092   1.401       .  A
C2091      H2095   1.084       .  S
C2092      C2096   1.478       .  S
C2092      C2093   1.406       .  A
C2093      C2094   1.397       .  A
C2093     Br2105   1.920       .  S
C2094      H2097   1.083       .  S
C2096      C2098   1.403       .  A
C2096      C2102   1.407       .  A
C2098      C2099   1.400       .  A
C2098      H2103   1.083       .  S
C2099      C2100   1.413       .  A
C2099     Br2107   1.922       .  S
C2100      C2101   1.404       .  A
C2101      C2102   1.395       .  A
C2101      H2104   1.084       .  S
C2102     Br2108   1.919       .  S
C2109      C2110   1.415       .  A
C2109      C2114   1.406       .  A
C2110      C2111   1.397       .  A
C2110     Br2126   1.923       .  S
C2111      C2112   1.401       .  A
C2111      H2115   1.084       .  S
C2112      C2116   1.475       .  S
C2112      C2113   1.405       .  A
C2113      C2114   1.398       .  A
C2113     Br2125   1.918       .  S
C2114      H2117   1.083       .  S
C2116      C2118   1.402       .  A
C2116      C2122   1.404       .  A
C2118      C2119   1.400       .  A
C2118      H2123   1.084       .  S
C2119      C2120   1.416       .  A
C2119     Br2127   1.922       .  S
C2120      C2121   1.406       .  A
C2121      C2122   1.395       .  A
C2121      H2124   1.083       .  S
C2122     Br2128   1.918       .  S
C2129      C2130   1.412       .  A
C2129      C2134   1.405       .  A
C2130      C2131   1.395       .  A
C2130     Br2146   1.922       .  S
C2131      C2132   1.400       .  A
C2131      H2135   1.083       .  S
C2132      C2136   1.477       .  S
C2132      C2133   1.409       .  A
C2133      C2134   1.402       .  A
C2133     Br2145   1.919       .  S
C2134      H2137   1.084       .  S
C2136      C2138   1.401       .  A
C2136      C2142   1.407       .  A
C2138      C2139   1.402       .  A
C2138      H2143   1.084       .  S
C2139      C2140   1.416       .  A
C2139     Br2147   1.920       .  S
C2140      C2141   1.407       .  A
C2141      C2142   1.396       .  A
C2141      H2144   1.083       .  S
C2142     Br2148   1.922       .  S
C2149      C2150   1.413       .  A
C2149      C2154   1.403       .  A
C2150      C2151   1.399       .  A
C2150     Br2166   1.921       .  S
C2151      C2152   1.401       .  A
C2151      H2155   1.084       .  S
C2152      C2156   1.475       .  S
C2152      C2153   1.408       .  A
C2153      C2154   1.397       .  A
C2153     Br2165   1.918       .  S
C2154      H2157   1.084       .  S
C2156      C2158   1.400       .  A
C2156      C2162   1.405       .  A
C2158      C2159   1.399       .  A
C2158      H2163   1.084       .  S
C2159      C2160   1.415       .  A
C2159     Br2167   1.921       .  S
C2160      C2161   1.408       .  A
C2161      C2162   1.398       .  A
C2161      H2164   1.083       .  S
C2162     Br2168   1.918       .  S
C2169      C2170   1.417       .  A
C2169      C2174   1.406       .  A
C2170      C2171   1.402       .  A
C2170     Br2186   1.921       .  S
C2171      C2172   1.400       .  A
C2171      H2175   1.084       .  S
C2172      C2176   1.474       .  S
C2172      C2173   1.404       .  A
C2173      C2174   1.395       .  A
C2173     Br2185   1.919       .  S
C2174      H2177   1.083       .  S
C2176      C2178   1.400       .  A
C2176      C2182   1.405       .  A
C2178      C2179   1.398       .  A
C2178      H2183   1.084       .  S
C2179      C2180   1.414       .  A
C2179     Br2187   1.921       .  S
C2180      C2181   1.406       .  A
C2181      C2182   1.397       .  A
C2181      H2184   1.084       .  S
C2182     Br2188   1.917       .  S
C2189      C2190   1.417       .  A
C2189      C2194   1.406       .  A
C2190      C2191   1.403       .  A
C2190     Br2206   1.921       .  S
C2191      C2192   1.403       .  A
C2191      H2195   1.084       .  S
C2192      C2196   1.484       .  S
C2192      C2193   1.407       .  A
C2193      C2194   1.398       .  A
C2193     Br2205   1.918       .  S
C2194      H2197   1.084       .  S
C2196      C2198   1.401       .  A
C2196      C2202   1.409       .  A
C2198      C2199   1.398       .  A
C2198      H2203   1.084       .  S
C2199      C2200   1.414       .  A
C2199     Br2207   1.922       .  S
C2200      C2201   1.407       .  A
C2201      C2202   1.404       .  A
C2201      H2204   1.084       .  S
C2202     Br2208   1.918       .  S
C2209      C2210   1.415       .  A
C2209      C2214   1.406       .  A
C2210      C2211   1.401       .  A
C2210     Br2226   1.921       .  S
C2211      C2212   1.401       .  A
C2211      H2215   1.084       .  S
C2212      C2216   1.479       .  S
C2212      C2213   1.406       .  A
C2213      C2214   1.400       .  A
C2213     Br2225   1.918       .  S
C2214      H2217   1.084       .  S
C2216      C2218   1.402       .  A
C2216      C2222   1.406       .  A
C2218      C2219   1.400       .  A
C2218      H2223   1.084       .  S
C2219      C2220   1.412       .  A
C2219     Br2227   1.920       .  S
C2220      C2221   1.406       .  A
C2221      C2222   1.401       .  A
C2221      H2224   1.084       .  S
C2222     Br2228   1.917       .  S
C2229      C2230   1.413       .  A
C2229      C2234   1.406       .  A
C2230      C2231   1.400       .  A
C2230     Br2246   1.918       .  S
C2231      C2232   1.401       .  A
C2231      H2235   1.084       .  S
C2232      C2236   1.476   1_655  S
C2232      C2233   1.407       .  A
C2233      C2234   1.398       .  A
C2233     Br2245   1.920   1_655  S
C2234      H2237   1.083       .  S
C2236      C2238   1.401       .  A
C2236      C2242   1.405       .  A
C2238      C2239   1.399       .  A
C2238      H2243   1.084       .  S
C2239      C2240   1.415       .  A
C2239     Br2247   1.921       .  S
C2240      C2241   1.407       .  A
C2241      C2242   1.398       .  A
C2241      H2244   1.084       .  S
C2242     Br2248   1.919       .  S
C2249      C2250   1.412       .  A
C2249      C2254   1.405       .  A
C2250      C2251   1.399       .  A
C2250     Br2266   1.920       .  S
C2251      C2252   1.401       .  A
C2251      H2255   1.084       .  S
C2252      C2256   1.476       .  S
C2252      C2253   1.407       .  A
C2253      C2254   1.399       .  A
C2253     Br2265   1.919       .  S
C2254      H2257   1.083       .  S
C2256      C2258   1.399       .  A
C2256      C2262   1.405       .  A
C2258      C2259   1.401       .  A
C2258      H2263   1.084       .  S
C2259      C2260   1.419       .  A
C2259     Br2267   1.921       .  S
C2260      C2261   1.408       .  A
C2261      C2262   1.398       .  A
C2261      H2264   1.083       .  S
C2262     Br2268   1.919       .  S
C2269      C2270   1.418       .  A
C2269      C2274   1.407       .  A
C2270      C2271   1.397       .  A
C2270     Br2286   1.922       .  S
C2271      C2272   1.398       .  A
C2271      H2275   1.084       .  S
C2272      C2276   1.471       .  S
C2272      C2273   1.404       .  A
C2273      C2274   1.397       .  A
C2273     Br2285   1.920       .  S
C2274      H2277   1.083       .  S
C2276      C2278   1.400       .  A
C2276      C2282   1.403       .  A
C2278      C2279   1.399       .  A
C2278      H2283   1.084       .  S
C2279      C2280   1.418       .  A
C2279     Br2287   1.922       .  S
C2280      C2281   1.408       .  A
C2281      C2282   1.395       .  A
C2281      H2284   1.084       .  S
C2282     Br2288   1.919       .  S
C2289      C2290   1.415       .  A
C2289      C2294   1.405       .  A
C2290      C2291   1.399       .  A
C2290     Br2306   1.921       .  S
C2291      C2292   1.401       .  A
C2291      H2295   1.084       .  S
C2292      C2296   1.468       .  S
C2292      C2293   1.402       .  A
C2293      C2294   1.392       .  A
C2293     Br2305   1.919       .  S
C2294      H2297   1.083       .  S
C2296      C2298   1.399       .  A
C2296      C2302   1.403       .  A
C2298      C2299   1.397       .  A
C2298      H2303   1.084       .  S
C2299      C2300   1.416       .  A
C2299     Br2307   1.922       .  S
C2300      C2301   1.405       .  A
C2301      C2302   1.396       .  A
C2301      H2304   1.084       .  S
C2302     Br2308   1.918       .  S
C2309      C2310   1.413       .  A
C2309      C2314   1.402       .  A
C2310      C2311   1.398       .  A
C2310     Br2326   1.921       .  S
C2311      C2312   1.400       .  A
C2311      H2315   1.084       .  S
C2312      C2316   1.471       .  S
C2312      C2313   1.407       .  A
C2313      C2314   1.395       .  A
C2313     Br2325   1.919       .  S
C2314      H2317   1.083       .  S
C2316      C2318   1.399       .  A
C2316      C2322   1.404       .  A
C2318      C2319   1.399       .  A
C2318      H2323   1.084       .  S
C2319      C2320   1.417       .  A
C2319     Br2327   1.921       .  S
C2320      C2321   1.407       .  A
C2321      C2322   1.394       .  A
C2321      H2324   1.084       .  S
C2322     Br2328   1.921       .  S
C2329      C2330   1.414       .  A
C2329      C2334   1.404       .  A
C2330      C2331   1.402       .  A
C2330     Br2346   1.919       .  S
C2331      C2332   1.402       .  A
C2331      H2335   1.083       .  S
C2332      C2336   1.476   1_455  S
C2332      C2333   1.407       .  A
C2333      C2334   1.394       .  A
C2333     Br2345   1.921       .  S
C2334      H2337   1.084       .  S
C2336      C2338   1.400       .  A
C2336      C2342   1.406       .  A
C2338      C2339   1.399       .  A
C2338      H2343   1.084       .  S
C2339      C2340   1.415       .  A
C2339     Br2347   1.921       .  S
C2340      C2341   1.405       .  A
C2341      C2342   1.397       .  A
C2341      H2344   1.084       .  S
C2342     Br2348   1.918       .  S
C2349      C2350   1.415       .  A
C2349      C2354   1.407       .  A
C2350      C2351   1.397       .  A
C2350     Br2366   1.922       .  S
C2351      C2352   1.400       .  A
C2351      H2355   1.084       .  S
C2352      C2356   1.478       .  S
C2352      C2353   1.407       .  A
C2353      C2354   1.401       .  A
C2353     Br2365   1.918       .  S
C2354      H2357   1.083       .  S
C2356      C2358   1.400       .  A
C2356      C2362   1.405       .  A
C2358      C2359   1.400       .  A
C2358      H2363   1.084       .  S
C2359      C2360   1.418       .  A
C2359     Br2367   1.922       .  S
C2360      C2361   1.407       .  A
C2361      C2362   1.398       .  A
C2361      H2364   1.083       .  S
C2362     Br2368   1.918       .  S
C2369      C2370   1.415       .  A
C2369      C2374   1.407       .  A
C2370      C2371   1.399       .  A
C2370     Br2386   1.920       .  S
C2371      C2372   1.400       .  A
C2371      H2375   1.084       .  S
C2372      C2376   1.471       .  S
C2372      C2373   1.403       .  A
C2373      C2374   1.396       .  A
C2373     Br2385   1.919       .  S
C2374      H2377   1.083       .  S
C2376      C2378   1.398       .  A
C2376      C2382   1.403       .  A
C2378      C2379   1.395       .  A
C2378      H2383   1.085       .  S
C2379      C2380   1.418       .  A
C2379     Br2387   1.923       .  S
C2380      C2381   1.408       .  A
C2381      C2382   1.399       .  A
C2381      H2384   1.082       .  S
C2382     Br2388   1.916       .  S
C2389      C2390   1.414       .  A
C2389      C2394   1.406       .  A
C2390      C2391   1.398       .  A
C2390     Br2406   1.920       .  S
C2391      C2392   1.402       .  A
C2391      H2395   1.084       .  S
C2392      C2396   1.476       .  S
C2392      C2393   1.406       .  A
C2393      C2394   1.396       .  A
C2393     Br2405   1.919       .  S
C2394      H2397   1.084       .  S
C2396      C2398   1.401       .  A
C2396      C2402   1.405       .  A
C2398      C2399   1.398       .  A
C2398      H2403   1.084       .  S
C2399      C2400   1.416       .  A
C2399     Br2407   1.923       .  S
C2400      C2401   1.406       .  A
C2401      C2402   1.396       .  A
C2401      H2404   1.084       .  S
C2402     Br2408   1.919       .  S
C2409      C2410   1.412       .  A
C2409      C2414   1.404       .  A
C2410      C2411   1.399       .  A
C2410     Br2426   1.921       .  S
C2411      C2412   1.402       .  A
C2411      H2415   1.084       .  S
C2412      C2416   1.478       .  S
C2412      C2413   1.407       .  A
C2413      C2414   1.400       .  A
C2413     Br2425   1.918       .  S
C2414      H2417   1.084       .  S
C2416      C2418   1.400       .  A
C2416      C2422   1.406       .  A
C2418      C2419   1.397       .  A
C2418      H2423   1.084       .  S
C2419      C2420   1.415       .  A
C2419     Br2427   1.923       .  S
C2420      C2421   1.406       .  A
C2421      C2422   1.400       .  A
C2421      H2424   1.083       .  S
C2422     Br2428   1.917       .  S
C2429      C2430   1.414       .  A
C2429      C2434   1.407       .  A
C2430      C2431   1.400       .  A
C2430     Br2446   1.921       .  S
C2431      C2432   1.401       .  A
C2431      H2435   1.084       .  S
C2432      C2436   1.481       .  S
C2432      C2433   1.408       .  A
C2433      C2434   1.400       .  A
C2433     Br2445   1.919       .  S
C2434      H2437   1.083       .  S
C2436      C2438   1.403       .  A
C2436      C2442   1.406       .  A
C2438      C2439   1.404       .  A
C2438      H2443   1.084       .  S
C2439      C2440   1.416       .  A
C2439     Br2447   1.921       .  S
C2440      C2441   1.406       .  A
C2441      C2442   1.395       .  A
C2441      H2444   1.083       .  S
C2442     Br2448   1.919       .  S
C2449      C2450   1.414       .  A
C2449      C2454   1.406       .  A
C2450      C2451   1.401       .  A
C2450     Br2466   1.919       .  S
C2451      C2452   1.403       .  A
C2451      H2455   1.084       .  S
C2452      C2456   1.479       .  S
C2452      C2453   1.406       .  A
C2453      C2454   1.396       .  A
C2453     Br2465   1.920       .  S
C2454      H2457   1.083       .  S
C2456      C2458   1.401       .  A
C2456      C2462   1.406       .  A
C2458      C2459   1.400       .  A
C2458      H2463   1.083       .  S
C2459      C2460   1.417       .  A
C2459     Br2467   1.920       .  S
C2460      C2461   1.409       .  A
C2461      C2462   1.399       .  A
C2461      H2464   1.083       .  S
C2462     Br2468   1.921       .  S
C2469      C2470   1.414       .  A
C2469      C2474   1.406       .  A
C2470      C2471   1.402       .  A
C2470     Br2486   1.920       .  S
C2471      C2472   1.402       .  A
C2471      H2475   1.084       .  S
C2472      C2476   1.479       .  S
C2472      C2473   1.407       .  A
C2473      C2474   1.399       .  A
C2473     Br2485   1.919       .  S
C2474      H2477   1.084       .  S
C2476      C2478   1.402       .  A
C2476      C2482   1.406       .  A
C2478      C2479   1.403       .  A
C2478      H2483   1.083       .  S
C2479      C2480   1.415       .  A
C2479     Br2487   1.920       .  S
C2480      C2481   1.406       .  A
C2481      C2482   1.398       .  A
C2481      H2484   1.084       .  S
C2482     Br2488   1.918       .  S
C2489      C2490   1.415       .  A
C2489      C2494   1.409       .  A
C2490      C2491   1.398       .  A
C2490     Br2506   1.921       .  S
C2491      C2492   1.402       .  A
C2491      H2495   1.085       .  S
C2492      C2496   1.481       .  S
C2492      C2493   1.406       .  A
C2493      C2494   1.400       .  A
C2493     Br2505   1.919       .  S
C2494      H2497   1.083       .  S
C2496      C2498   1.403       .  A
C2496      C2502   1.407       .  A
C2498      C2499   1.399       .  A
C2498      H2503   1.084       .  S
C2499      C2500   1.414       .  A
C2499     Br2507   1.922       .  S
C2500      C2501   1.405       .  A
C2501      C2502   1.398       .  A
C2501      H2504   1.084       .  S
C2502     Br2508   1.919       .  S
C2509      C2510   1.412       .  A
C2509      C2514   1.404       .  A
C2510      C2511   1.396       .  A
C2510     Br2526   1.922       .  S
C2511      C2512   1.399       .  A
C2511      H2515   1.084       .  S
C2512      C2516   1.470       .  S
C2512      C2513   1.406       .  A
C2513      C2514   1.398       .  A
C2513     Br2525   1.918       .  S
C2514      H2517   1.084       .  S
C2516      C2518   1.398       .  A
C2516      C2522   1.405       .  A
C2518      C2519   1.396       .  A
C2518      H2523   1.084       .  S
C2519      C2520   1.414       .  A
C2519     Br2527   1.921       .  S
C2520      C2521   1.406       .  A
C2521      C2522   1.400       .  A
C2521      H2524   1.084       .  S
C2522     Br2528   1.919       .  S
C2529      C2530   1.418       .  A
C2529      C2534   1.407       .  A
C2530      C2531   1.405       .  A
C2530     Br2546   1.921       .  S
C2531      C2532   1.403       .  A
C2531      H2535   1.083       .  S
C2532      C2536   1.482   1_655  S
C2532      C2533   1.406       .  A
C2533      C2534   1.396       .  A
C2533     Br2545   1.919       .  S
C2534      H2537   1.083       .  S
C2536      C2538   1.402       .  A
C2536      C2542   1.407       .  A
C2538      C2539   1.401       .  A
C2538      H2543   1.084       .  S
C2539      C2540   1.416       .  A
C2539     Br2547   1.920       .  S
C2540      C2541   1.408       .  A
C2541      C2542   1.400       .  A
C2541      H2544   1.083       .  S
C2542     Br2548   1.919       .  S
C2549      C2550   1.416       .  A
C2549      C2554   1.406       .  A
C2550      C2551   1.396       .  A
C2550     Br2566   1.923       .  S
C2551      C2552   1.400       .  A
C2551      H2555   1.084       .  S
C2552      C2556   1.479       .  S
C2552      C2553   1.408       .  A
C2553      C2554   1.399       .  A
C2553     Br2565   1.919       .  S
C2554      H2557   1.083       .  S
C2556      C2558   1.401       .  A
C2556      C2562   1.408       .  A
C2558      C2559   1.398       .  A
C2558      H2563   1.084       .  S
C2559      C2560   1.415       .  A
C2559     Br2567   1.921       .  S
C2560      C2561   1.406       .  A
C2561      C2562   1.398       .  A
C2561      H2564   1.083       .  S
C2562     Br2568   1.920       .  S
C2569      C2570   1.413       .  A
C2569      C2574   1.404       .  A
C2570      C2571   1.399       .  A
C2570     Br2586   1.920       .  S
C2571      C2572   1.401       .  A
C2571      H2575   1.084       .  S
C2572      C2576   1.476       .  S
C2572      C2573   1.406       .  A
C2573      C2574   1.398       .  A
C2573     Br2585   1.918       .  S
C2574      H2577   1.083       .  S
C2576      C2578   1.401       .  A
C2576      C2582   1.405       .  A
C2578      C2579   1.400       .  A
C2578      H2583   1.083       .  S
C2579      C2580   1.415       .  A
C2579     Br2587   1.920       .  S
C2580      C2581   1.406       .  A
C2581      C2582   1.398       .  A
C2581      H2584   1.083       .  S
C2582     Br2588   1.919       .  S
C2589      C2590   1.414       .  A
C2589      C2594   1.405       .  A
C2590      C2591   1.396       .  A
C2590     Br2606   1.921       .  S
C2591      C2592   1.399       .  A
C2591      H2595   1.084       .  S
C2592      C2596   1.472       .  S
C2592      C2593   1.405       .  A
C2593      C2594   1.398       .  A
C2593     Br2605   1.917       .  S
C2594      H2597   1.084       .  S
C2596      C2598   1.400       .  A
C2596      C2602   1.404       .  A
C2598      C2599   1.400       .  A
C2598      H2603   1.083       .  S
C2599      C2600   1.416       .  A
C2599     Br2607   1.920       .  S
C2600      C2601   1.407       .  A
C2601      C2602   1.395       .  A
C2601      H2604   1.083       .  S
C2602     Br2608   1.920       .  S
C2609      C2610   1.418       .  A
C2609      C2614   1.406       .  A
C2610      C2611   1.401       .  A
C2610     Br2626   1.921       .  S
C2611      C2612   1.400       .  A
C2611      H2615   1.084       .  S
C2612      C2616   1.481       .  S
C2612      C2613   1.408       .  A
C2613      C2614   1.399       .  A
C2613     Br2625   1.920       .  S
C2614      H2617   1.083       .  S
C2616      C2618   1.402       .  A
C2616      C2622   1.408       .  A
C2618      C2619   1.402       .  A
C2618      H2623   1.084       .  S
C2619      C2620   1.413       .  A
C2619     Br2627   1.920       .  S
C2620      C2621   1.405       .  A
C2621      C2622   1.399       .  A
C2621      H2624   1.083       .  S
C2622     Br2628   1.920       .  S
C2629      C2630   1.414       .  A
C2629      C2634   1.405       .  A
C2630      C2631   1.396       .  A
C2630     Br2646   1.922       .  S
C2631      C2632   1.400       .  A
C2631      H2635   1.084       .  S
C2632      C2636   1.471       .  S
C2632      C2633   1.405       .  A
C2633      C2634   1.398       .  A
C2633     Br2645   1.917       .  S
C2634      H2637   1.084       .  S
C2636      C2638   1.401       .  A
C2636      C2642   1.405       .  A
C2638      C2639   1.402       .  A
C2638      H2643   1.083       .  S
C2639      C2640   1.412       .  A
C2639     Br2647   1.918       .  S
C2640      C2641   1.403       .  A
C2641      C2642   1.394       .  A
C2641      H2644   1.084       .  S
C2642     Br2648   1.920       .  S
C2649      C2650   1.416       .  A
C2649      C2654   1.407       .  A
C2650      C2651   1.399       .  A
C2650     Br2666   1.920       .  S
C2651      C2652   1.399       .  A
C2651      H2655   1.084       .  S
C2652      C2656   1.473       .  S
C2652      C2653   1.405       .  A
C2653      C2654   1.397       .  A
C2653     Br2665   1.920       .  S
C2654      H2657   1.083       .  S
C2656      C2658   1.400       .  A
C2656      C2662   1.405       .  A
C2658      C2659   1.400       .  A
C2658      H2663   1.084       .  S
C2659      C2660   1.415       .  A
C2659     Br2667   1.921       .  S
C2660      C2661   1.405       .  A
C2661      C2662   1.395       .  A
C2661      H2664   1.084       .  S
C2662     Br2668   1.919       .  S
C2669      C2670   1.414       .  A
C2669      C2674   1.406       .  A
C2670      C2671   1.401       .  A
C2670     Br2686   1.920       .  S
C2671      C2672   1.401       .  A
C2671      H2675   1.084       .  S
C2672      C2676   1.476       .  S
C2672      C2673   1.406       .  A
C2673      C2674   1.396       .  A
C2673     Br2685   1.921       .  S
C2674      H2677   1.083       .  S
C2676      C2678   1.400       .  A
C2676      C2682   1.406       .  A
C2678      C2679   1.398       .  A
C2678      H2683   1.084       .  S
C2679      C2680   1.415       .  A
C2679     Br2687   1.921       .  S
C2680      C2681   1.406       .  A
C2681      C2682   1.399       .  A
C2681      H2684   1.083       .  S
C2682     Br2688   1.919       .  S
C2689      C2690   1.417       .  A
C2689      C2694   1.406       .  A
C2690      C2691   1.403       .  A
C2690     Br2706   1.920       .  S
C2691      C2692   1.402       .  A
C2691      H2695   1.084       .  S
C2692      C2696   1.474       .  S
C2692      C2693   1.404       .  A
C2693      C2694   1.392       .  A
C2693     Br2705   1.920       .  S
C2694      H2697   1.083       .  S
C2696      C2698   1.398       .  A
C2696      C2702   1.407       .  A
C2698      C2699   1.397       .  A
C2698      H2703   1.084       .  S
C2699      C2700   1.417       .  A
C2699     Br2707   1.923       .  S
C2700      C2701   1.406       .  A
C2701      C2702   1.399       .  A
C2701      H2704   1.084       .  S
C2702     Br2708   1.919       .  S
C2709      C2710   1.415       .  A
C2709      C2714   1.407       .  A
C2710      C2711   1.397       .  A
C2710     Br2726   1.922       .  S
C2711      C2712   1.400       .  A
C2711      H2715   1.084       .  S
C2712      C2716   1.477       .  S
C2712      C2713   1.407       .  A
C2713      C2714   1.400       .  A
C2713     Br2725   1.919       .  S
C2714      H2717   1.083       .  S
C2716      C2718   1.402       .  A
C2716      C2722   1.406       .  A
C2718      C2719   1.400       .  A
C2718      H2723   1.084       .  S
C2719      C2720   1.415       .  A
C2719     Br2727   1.922       .  S
C2720      C2721   1.405       .  A
C2721      C2722   1.397       .  A
C2721      H2724   1.084       .  S
C2722     Br2728   1.918       .  S
C2729      C2730   1.416       .  A
C2729      C2734   1.406       .  A
C2730      C2731   1.402       .  A
C2730     Br2746   1.920       .  S
C2731      C2732   1.403       .  A
C2731      H2735   1.084       .  S
C2732      C2736   1.479       .  S
C2732      C2733   1.407       .  A
C2733      C2734   1.395       .  A
C2733     Br2745   1.921       .  S
C2734      H2737   1.083       .  S
C2736      C2738   1.402       .  A
C2736      C2742   1.408       .  A
C2738      C2739   1.399       .  A
C2738      H2743   1.084       .  S
C2739      C2740   1.415       .  A
C2739     Br2747   1.921       .  S
C2740      C2741   1.406       .  A
C2741      C2742   1.398       .  A
C2741      H2744   1.083       .  S
C2742     Br2748   1.920       .  S
C2749      C2750   1.411       .  A
C2749      C2754   1.403       .  A
C2750      C2751   1.401       .  A
C2750     Br2766   1.920       .  S
C2751      C2752   1.405       .  A
C2751      H2755   1.083       .  S
C2752      C2756   1.484   1_565  S
C2752      C2753   1.409       .  A
C2753      C2754   1.398       .  A
C2753     Br2765   1.919       .  S
C2754      H2757   1.084       .  S
C2756      C2758   1.402       .  A
C2756      C2762   1.407       .  A
C2758      C2759   1.403       .  A
C2758      H2763   1.085       .  S
C2759      C2760   1.417       .  A
C2759     Br2767   1.920       .  S
C2760      C2761   1.408       .  A
C2761      C2762   1.400       .  A
C2761      H2764   1.083       .  S
C2762     Br2768   1.921       .  S
C2769      C2770   1.418       .  A
C2769      C2774   1.408       .  A
C2770      C2771   1.404       .  A
C2770     Br2786   1.921       .  S
C2771      C2772   1.402       .  A
C2771      H2775   1.084       .  S
C2772      C2776   1.483       .  S
C2772      C2773   1.406       .  A
C2773      C2774   1.400       .  A
C2773     Br2785   1.918       .  S
C2774      H2777   1.084       .  S
C2776      C2778   1.402       .  A
C2776      C2782   1.406       .  A
C2778      C2779   1.404       .  A
C2778      H2783   1.084       .  S
C2779      C2780   1.417       .  A
C2779     Br2787   1.920       .  S
C2780      C2781   1.409       .  A
C2781      C2782   1.401       .  A
C2781      H2784   1.083       .  S
C2782     Br2788   1.918       .  S
C2789      C2790   1.412       .  A
C2789      C2794   1.404       .  A
C2790      C2791   1.398       .  A
C2790     Br2806   1.921       .  S
C2791      C2792   1.400       .  A
C2791      H2795   1.084       .  S
C2792      C2796   1.472       .  S
C2792      C2793   1.406       .  A
C2793      C2794   1.399       .  A
C2793     Br2805   1.918       .  S
C2794      H2797   1.084       .  S
C2796      C2798   1.401       .  A
C2796      C2802   1.404       .  A
C2798      C2799   1.401       .  A
C2798      H2803   1.084       .  S
C2799      C2800   1.415       .  A
C2799     Br2807   1.919       .  S
C2800      C2801   1.406       .  A
C2801      C2802   1.395       .  A
C2801      H2804   1.083       .  S
C2802     Br2808   1.919       .  S
C2809      C2810   1.415       .  A
C2809      C2814   1.408       .  A
C2810      C2811   1.401       .  A
C2810     Br2826   1.920       .  S
C2811      C2812   1.401       .  A
C2811      H2815   1.084       .  S
C2812      C2816   1.476       .  S
C2812      C2813   1.405       .  A
C2813      C2814   1.399       .  A
C2813     Br2825   1.920       .  S
C2814      H2817   1.083       .  S
C2816      C2818   1.398       .  A
C2816      C2822   1.405       .  A
C2818      C2819   1.397       .  A
C2818      H2823   1.084       .  S
C2819      C2820   1.417       .  A
C2819     Br2827   1.922       .  S
C2820      C2821   1.409       .  A
C2821      C2822   1.401       .  A
C2821      H2824   1.084       .  S
C2822     Br2828   1.917       .  S
C2829      C2830   1.416       .  A
C2829      C2834   1.406       .  A
C2830      C2831   1.402       .  A
C2830     Br2846   1.921       .  S
C2831      C2832   1.403       .  A
C2831      H2835   1.084       .  S
C2832      C2836   1.480   1_545  S
C2832      C2833   1.406       .  A
C2833      C2834   1.397       .  A
C2833     Br2845   1.919       .  S
C2834      H2837   1.084       .  S
C2836      C2838   1.404       .  A
C2836      C2842   1.407       .  A
C2838      C2839   1.403       .  A
C2838      H2843   1.084       .  S
C2839      C2840   1.412       .  A
C2839     Br2847   1.919       .  S
C2840      C2841   1.404       .  A
C2841      C2842   1.397       .  A
C2841      H2844   1.083       .  S
C2842     Br2848   1.920       .  S
C2849      C2850   1.411       .  A
C2849      C2854   1.404       .  A
C2850      C2851   1.400       .  A
C2850     Br2866   1.920       .  S
C2851      C2852   1.404       .  A
C2851      H2855   1.084       .  S
C2852      C2856   1.484       .  S
C2852      C2853   1.410       .  A
C2853      C2854   1.398       .  A
C2853     Br2865   1.920       .  S
C2854      H2857   1.083       .  S
C2856      C2858   1.403       .  A
C2856      C2862   1.409       .  A
C2858      C2859   1.401       .  A
C2858      H2863   1.084       .  S
C2859      C2860   1.416       .  A
C2859     Br2867   1.921       .  S
C2860      C2861   1.405       .  A
C2861      C2862   1.398       .  A
C2861      H2864   1.083       .  S
C2862     Br2868   1.920       .  S
C2869      C2870   1.414       .  A
C2869      C2874   1.406       .  A
C2870      C2871   1.399       .  A
C2870     Br2886   1.920       .  S
C2871      C2872   1.399       .  A
C2871      H2875   1.084       .  S
C2872      C2876   1.476       .  S
C2872      C2873   1.407       .  A
C2873      C2874   1.399       .  A
C2873     Br2885   1.918       .  S
C2874      H2877   1.083       .  S
C2876      C2878   1.400       .  A
C2876      C2882   1.406       .  A
C2878      C2879   1.401       .  A
C2878      H2883   1.084       .  S
C2879      C2880   1.415       .  A
C2879     Br2887   1.919       .  S
C2880      C2881   1.405       .  A
C2881      C2882   1.397       .  A
C2881      H2884   1.084       .  S
C2882     Br2888   1.919       .  S
C2889      C2890   1.416       .  A
C2889      C2894   1.407       .  A
C2890      C2891   1.398       .  A
C2890     Br2906   1.922       .  S
C2891      C2892   1.399       .  A
C2891      H2895   1.084       .  S
C2892      C2896   1.473       .  S
C2892      C2893   1.404       .  A
C2893      C2894   1.398       .  A
C2893     Br2905   1.918       .  S
C2894      H2897   1.084       .  S
C2896      C2898   1.401       .  A
C2896      C2902   1.405       .  A
C2898      C2899   1.401       .  A
C2898      H2903   1.084       .  S
C2899      C2900   1.413       .  A
C2899     Br2907   1.920       .  S
C2900      C2901   1.404       .  A
C2901      C2902   1.394       .  A
C2901      H2904   1.084       .  S
C2902     Br2908   1.920       .  S
C2909      C2910   1.414       .  A
C2909      C2914   1.403       .  A
C2910      C2911   1.402       .  A
C2910     Br2926   1.919       .  S
C2911      C2912   1.402       .  A
C2911      H2915   1.084       .  S
C2912      C2916   1.473   1_655  S
C2912      C2913   1.406       .  A
C2913      C2914   1.393       .  A
C2913     Br2925   1.921   1_655  S
C2914      H2917   1.084       .  S
C2916      C2918   1.399       .  A
C2916      C2922   1.404       .  A
C2918      C2919   1.399       .  A
C2918      H2923   1.083       .  S
C2919      C2920   1.417       .  A
C2919     Br2927   1.922       .  S
C2920      C2921   1.406       .  A
C2921      C2922   1.396       .  A
C2921      H2924   1.084       .  S
C2922     Br2928   1.919       .  S
C2929      C2930   1.416       .  A
C2929      C2934   1.406       .  A
C2930      C2931   1.402       .  A
C2930     Br2946   1.920       .  S
C2931      C2932   1.402       .  A
C2931      H2935   1.084       .  S
C2932      C2936   1.478       .  S
C2932      C2933   1.405       .  A
C2933      C2934   1.396       .  A
C2933     Br2945   1.919       .  S
C2934      H2937   1.084       .  S
C2936      C2938   1.401       .  A
C2936      C2942   1.406       .  A
C2938      C2939   1.401       .  A
C2938      H2943   1.084       .  S
C2939      C2940   1.415       .  A
C2939     Br2947   1.921       .  S
C2940      C2941   1.405       .  A
C2941      C2942   1.398       .  A
C2941      H2944   1.083       .  S
C2942     Br2948   1.918       .  S
C2949      C2950   1.417       .  A
C2949      C2954   1.408       .  A
C2950      C2951   1.396       .  A
C2950     Br2966   1.922       .  S
C2951      C2952   1.399       .  A
C2951      H2955   1.084       .  S
C2952      C2956   1.473       .  S
C2952      C2953   1.404       .  A
C2953      C2954   1.398       .  A
C2953     Br2965   1.918       .  S
C2954      H2957   1.083       .  S
C2956      C2958   1.400       .  A
C2956      C2962   1.405       .  A
C2958      C2959   1.401       .  A
C2958      H2963   1.084       .  S
C2959      C2960   1.416       .  A
C2959     Br2967   1.919       .  S
C2960      C2961   1.407       .  A
C2961      C2962   1.395       .  A
C2961      H2964   1.083       .  S
C2962     Br2968   1.921       .  S
C2969      C2970   1.413       .  A
C2969      C2974   1.404       .  A
C2970      C2971   1.401       .  A
C2970     Br2986   1.920       .  S
C2971      C2972   1.402       .  A
C2971      H2975   1.084       .  S
C2972      C2976   1.474       .  S
C2972      C2973   1.406       .  A
C2973      C2974   1.395       .  A
C2973     Br2985   1.920       .  S
C2974      H2977   1.084       .  S
C2976      C2978   1.400       .  A
C2976      C2982   1.404       .  A
C2978      C2979   1.401       .  A
C2978      H2983   1.084       .  S
C2979      C2980   1.417       .  A
C2979     Br2987   1.921       .  S
C2980      C2981   1.407       .  A
C2981      C2982   1.396       .  A
C2981      H2984   1.083       .  S
C2982     Br2988   1.919       .  S
C2989      C2990   1.415       .  A
C2989      C2994   1.404       .  A
C2990      C2991   1.401       .  A
C2990     Br3006   1.922       .  S
C2991      C2992   1.401       .  A
C2991      H2995   1.084       .  S
C2992      C2996   1.477       .  S
C2992      C2993   1.406       .  A
C2993      C2994   1.398       .  A
C2993     Br3005   1.918       .  S
C2994      H2997   1.083       .  S
C2996      C2998   1.399       .  A
C2996      C3002   1.405       .  A
C2998      C2999   1.399       .  A
C2998      H3003   1.084       .  S
C2999      C3000   1.417       .  A
C2999     Br3007   1.922       .  S
C3000      C3001   1.407       .  A
C3001      C3002   1.401       .  A
C3001      H3004   1.083       .  S
C3002     Br3008   1.918       .  S
C3009      C3010   1.415       .  A
C3009      C3014   1.408       .  A
C3010      C3011   1.396       .  A
C3010     Br3026   1.923       .  S
C3011      C3012   1.401       .  A
C3011      H3015   1.084       .  S
C3012      C3016   1.481       .  S
C3012      C3013   1.407       .  A
C3013      C3014   1.402       .  A
C3013     Br3025   1.917       .  S
C3014      H3017   1.084       .  S
C3016      C3018   1.402       .  A
C3016      C3022   1.408       .  A
C3018      C3019   1.402       .  A
C3018      H3023   1.084       .  S
C3019      C3020   1.413       .  A
C3019     Br3027   1.920       .  S
C3020      C3021   1.404       .  A
C3021      C3022   1.398       .  A
C3021      H3024   1.083       .  S
C3022     Br3028   1.920       .  S
C3029      C3030   1.414       .  A
C3029      C3034   1.404       .  A
C3030      C3031   1.403       .  A
C3030     Br3046   1.920       .  S
C3031      C3032   1.404       .  A
C3031      H3035   1.084       .  S
C3032      C3036   1.480       .  S
C3032      C3033   1.407       .  A
C3033      C3034   1.394       .  A
C3033     Br3045   1.920       .  S
C3034      H3037   1.083       .  S
C3036      C3038   1.400       .  A
C3036      C3042   1.407       .  A
C3038      C3039   1.397       .  A
C3038      H3043   1.084       .  S
C3039      C3040   1.416       .  A
C3039     Br3047   1.920       .  S
C3040      C3041   1.409       .  A
C3041      C3042   1.402       .  A
C3041      H3044   1.084       .  S
C3042     Br3048   1.920       .  S
C3049      C3050   1.417       .  A
C3049      C3054   1.407       .  A
C3050      C3051   1.400       .  A
C3050     Br3066   1.922       .  S
C3051      C3052   1.401       .  A
C3051      H3055   1.084       .  S
C3052      C3056   1.481       .  S
C3052      C3053   1.406       .  A
C3053      C3054   1.401       .  A
C3053     Br3065   1.918       .  S
C3054      H3057   1.083       .  S
C3056      C3058   1.401       .  A
C3056      C3062   1.408       .  A
C3058      C3059   1.398       .  A
C3058      H3063   1.084       .  S
C3059      C3060   1.412       .  A
C3059     Br3067   1.921       .  S
C3060      C3061   1.405       .  A
C3061      C3062   1.403       .  A
C3061      H3064   1.085       .  S
C3062     Br3068   1.918       .  S
C3069      C3070   1.417       .  A
C3069      C3074   1.408       .  A
C3070      C3071   1.399       .  A
C3070     Br3086   1.921       .  S
C3071      C3072   1.400       .  A
C3071      H3075   1.084       .  S
C3072      C3076   1.483       .  S
C3072      C3073   1.408       .  A
C3073      C3074   1.402       .  A
C3073     Br3085   1.919       .  S
C3074      H3077   1.083       .  S
C3076      C3078   1.403       .  A
C3076      C3082   1.408       .  A
C3078      C3079   1.403       .  A
C3078      H3083   1.084       .  S
C3079      C3080   1.415       .  A
C3079     Br3087   1.920       .  S
C3080      C3081   1.406       .  A
C3081      C3082   1.398       .  A
C3081      H3084   1.083       .  S
C3082     Br3088   1.920       .  S
C3089      C3090   1.415       .  A
C3089      C3094   1.405       .  A
C3090      C3091   1.403       .  A
C3090     Br3106   1.920       .  S
C3091      C3092   1.403       .  A
C3091      H3095   1.084       .  S
C3092      C3096   1.479       .  S
C3092      C3093   1.406       .  A
C3093      C3094   1.396       .  A
C3093     Br3105   1.919       .  S
C3094      H3097   1.083       .  S
C3096      C3098   1.401       .  A
C3096      C3102   1.407       .  A
C3098      C3099   1.398       .  A
C3098      H3103   1.084       .  S
C3099      C3100   1.415       .  A
C3099     Br3107   1.922       .  S
C3100      C3101   1.407       .  A
C3101      C3102   1.401       .  A
C3101      H3104   1.083       .  S
C3102     Br3108   1.918       .  S
C3109      C3110   1.416       .  A
C3109      C3114   1.407       .  A
C3110      C3111   1.397       .  A
C3110     Br3126   1.922       .  S
C3111      C3112   1.400       .  A
C3111      H3115   1.084       .  S
C3112      C3116   1.474   1_556  S
C3112      C3113   1.405       .  A
C3113      C3114   1.397       .  A
C3113     Br3125   1.920       .  S
C3114      H3117   1.084       .  S
C3116      C3118   1.401       .  A
C3116      C3122   1.408       .  A
C3118      C3119   1.398       .  A
C3118      H3123   1.084       .  S
C3119      C3120   1.413       .  A
C3119     Br3127   1.920       .  S
C3120      C3121   1.405       .  A
C3121      C3122   1.396       .  A
C3121      H3124   1.083       .  S
C3122     Br3128   1.921   1_554  S
C3129      C3130   1.417       .  A
C3129      C3134   1.407       .  A
C3130      C3131   1.401       .  A
C3130     Br3146   1.921       .  S
C3131      C3132   1.403       .  A
C3131      H3135   1.084       .  S
C3132      C3136   1.488       .  S
C3132      C3133   1.410       .  A
C3133      C3134   1.401       .  A
C3133     Br3145   1.920       .  S
C3134      H3137   1.083       .  S
C3136      C3138   1.403       .  A
C3136      C3142   1.409       .  A
C3138      C3139   1.400       .  A
C3138      H3143   1.084       .  S
C3139      C3140   1.416       .  A
C3139     Br3147   1.922       .  S
C3140      C3141   1.408       .  A
C3141      C3142   1.400       .  A
C3141      H3144   1.083       .  S
C3142     Br3148   1.919       .  S
C3149      C3150   1.419       .  A
C3149      C3154   1.406       .  A
C3150      C3151   1.400       .  A
C3150     Br3166   1.922       .  S
C3151      C3152   1.400       .  A
C3151      H3155   1.084       .  S
C3152      C3156   1.473       .  S
C3152      C3153   1.403       .  A
C3153      C3154   1.395       .  A
C3153     Br3165   1.918       .  S
C3154      H3157   1.083       .  S
C3156      C3158   1.400       .  A
C3156      C3162   1.404       .  A
C3158      C3159   1.399       .  A
C3158      H3163   1.084       .  S
C3159      C3160   1.414       .  A
C3159     Br3167   1.920       .  S
C3160      C3161   1.406       .  A
C3161      C3162   1.397       .  A
C3161      H3164   1.084       .  S
C3162     Br3168   1.919       .  S
C3169      C3170   1.419       .  A
C3169      C3174   1.407       .  A
C3170      C3171   1.399       .  A
C3170     Br3186   1.922       .  S
C3171      C3172   1.398       .  A
C3171      H3175   1.084       .  S
C3172      C3176   1.474       .  S
C3172      C3173   1.405       .  A
C3173      C3174   1.399       .  A
C3173     Br3185   1.919       .  S
C3174      H3177   1.083       .  S
C3176      C3178   1.400       .  A
C3176      C3182   1.404       .  A
C3178      C3179   1.402       .  A
C3178      H3183   1.084       .  S
C3179      C3180   1.419       .  A
C3179     Br3187   1.922       .  S
C3180      C3181   1.406       .  A
C3181      C3182   1.395       .  A
C3181      H3184   1.083       .  S
C3182     Br3188   1.920       .  S
C3189      C3190   1.416       .  A
C3189      C3194   1.407       .  A
C3190      C3191   1.400       .  A
C3190     Br3206   1.920       .  S
C3191      C3192   1.401       .  A
C3191      H3195   1.084       .  S
C3192      C3196   1.474       .  S
C3192      C3193   1.404       .  A
C3193      C3194   1.396       .  A
C3193     Br3205   1.919       .  S
C3194      H3197   1.084       .  S
C3196      C3198   1.401       .  A
C3196      C3202   1.404       .  A
C3198      C3199   1.400       .  A
C3198      H3203   1.084       .  S
C3199      C3200   1.415       .  A
C3199     Br3207   1.921       .  S
C3200      C3201   1.406       .  A
C3201      C3202   1.395       .  A
C3201      H3204   1.084       .  S
C3202     Br3208   1.919       .  S
C3209      C3210   1.414       .  A
C3209      C3214   1.407       .  A
C3210      C3211   1.400       .  A
C3210     Br3226   1.919       .  S
C3211      C3212   1.402       .  A
C3211      H3215   1.084       .  S
C3212      C3216   1.481       .  S
C3212      C3213   1.408       .  A
C3213      C3214   1.399       .  A
C3213     Br3225   1.921       .  S
C3214      H3217   1.083       .  S
C3216      C3218   1.404       .  A
C3216      C3222   1.409       .  A
C3218      C3219   1.400       .  A
C3218      H3223   1.083       .  S
C3219      C3220   1.412       .  A
C3219     Br3227   1.921       .  S
C3220      C3221   1.402       .  A
C3221      C3222   1.395       .  A
C3221      H3224   1.084       .  S
C3222     Br3228   1.919       .  S
C3229      C3230   1.416       .  A
C3229      C3234   1.404       .  A
C3230      C3231   1.401       .  A
C3230     Br3246   1.921       .  S
C3231      C3232   1.403       .  A
C3231      H3235   1.084       .  S
C3232      C3236   1.484       .  S
C3232      C3233   1.409       .  A
C3233      C3234   1.397       .  A
C3233     Br3245   1.920       .  S
C3234      H3237   1.084       .  S
C3236      C3238   1.402       .  A
C3236      C3242   1.409       .  A
C3238      C3239   1.397       .  A
C3238      H3243   1.084       .  S
C3239      C3240   1.415       .  A
C3239     Br3247   1.923       .  S
C3240      C3241   1.407       .  A
C3241      C3242   1.401       .  A
C3241      H3244   1.083       .  S
C3242     Br3248   1.919       .  S
C3249      C3250   1.416       .  A
C3249      C3254   1.407       .  A
C3250      C3251   1.401       .  A
C3250     Br3266   1.920       .  S
C3251      C3252   1.400       .  A
C3251      H3255   1.084       .  S
C3252      C3256   1.475       .  S
C3252      C3253   1.405       .  A
C3253      C3254   1.396       .  A
C3253     Br3265   1.919       .  S
C3254      H3257   1.083       .  S
C3256      C3258   1.401       .  A
C3256      C3262   1.404       .  A
C3258      C3259   1.401       .  A
C3258      H3263   1.084       .  S
C3259      C3260   1.416       .  A
C3259     Br3267   1.921       .  S
C3260      C3261   1.406       .  A
C3261      C3262   1.396       .  A
C3261      H3264   1.084       .  S
C3262     Br3268   1.918       .  S
C3269      C3270   1.416       .  A
C3269      C3274   1.408       .  A
C3270      C3271   1.394       .  A
C3270     Br3286   1.922       .  S
C3271      C3272   1.400       .  A
C3271      H3275   1.084       .  S
C3272      C3276   1.477       .  S
C3272      C3273   1.407       .  A
C3273      C3274   1.400       .  A
C3273     Br3285   1.919       .  S
C3274      H3277   1.084       .  S
C3276      C3278   1.401       .  A
C3276      C3282   1.408       .  A
C3278      C3279   1.397       .  A
C3278      H3283   1.084       .  S
C3279      C3280   1.414       .  A
C3279     Br3287   1.921       .  S
C3280      C3281   1.405       .  A
C3281      C3282   1.397       .  A
C3281      H3284   1.084       .  S
C3282     Br3288   1.920       .  S
C3289      C3290   1.413       .  A
C3289      C3294   1.404       .  A
C3290      C3291   1.397       .  A
C3290     Br3306   1.923       .  S
C3291      C3292   1.400       .  A
C3291      H3295   1.084       .  S
C3292      C3296   1.475       .  S
C3292      C3293   1.407       .  A
C3293      C3294   1.400       .  A
C3293     Br3305   1.918       .  S
C3294      H3297   1.083       .  S
C3296      C3298   1.400       .  A
C3296      C3302   1.405       .  A
C3298      C3299   1.400       .  A
C3298      H3303   1.084       .  S
C3299      C3300   1.417       .  A
C3299     Br3307   1.922       .  S
C3300      C3301   1.407       .  A
C3301      C3302   1.397       .  A
C3301      H3304   1.083       .  S
C3302     Br3308   1.919       .  S
C3309      C3310   1.415       .  A
C3309      C3314   1.406       .  A
C3310      C3311   1.403       .  A
C3310     Br3326   1.920       .  S
C3311      C3312   1.404       .  A
C3311      H3315   1.083       .  S
C3312      C3316   1.479       .  S
C3312      C3313   1.405       .  A
C3313      C3314   1.393       .  A
C3313     Br3325   1.919       .  S
C3314      H3317   1.083       .  S
C3316      C3318   1.401       .  A
C3316      C3322   1.407       .  A
C3318      C3319   1.398       .  A
C3318      H3323   1.084       .  S
C3319      C3320   1.415       .  A
C3319     Br3327   1.922       .  S
C3320      C3321   1.406       .  A
C3321      C3322   1.401       .  A
C3321      H3324   1.083       .  S
C3322     Br3328   1.918       .  S
C3329      C3330   1.417       .  A
C3329      C3334   1.407       .  A
C3330      C3331   1.403       .  A
C3330     Br3346   1.921       .  S
C3331      C3332   1.402       .  A
C3331      H3335   1.084       .  S
C3332      C3336   1.478       .  S
C3332      C3333   1.404       .  A
C3333      C3334   1.396       .  A
C3333     Br3345   1.917       .  S
C3334      H3337   1.083       .  S
C3336      C3338   1.400       .  A
C3336      C3342   1.405       .  A
C3338      C3339   1.399       .  A
C3338      H3343   1.084       .  S
C3339      C3340   1.415       .  A
C3339     Br3347   1.921       .  S
C3340      C3341   1.407       .  A
C3341      C3342   1.401       .  A
C3341      H3344   1.084       .  S
C3342     Br3348   1.917       .  S
C3349      C3350   1.415       .  A
C3349      C3354   1.405       .  A
C3350      C3351   1.403       .  A
C3350     Br3366   1.920       .  S
C3351      C3352   1.404       .  A
C3351      H3355   1.084       .  S
C3352      C3356   1.481   1_556  S
C3352      C3353   1.408       .  A
C3353      C3354   1.395       .  A
C3353     Br3365   1.921       .  S
C3354      H3357   1.084       .  S
C3356      C3358   1.401       .  A
C3356      C3362   1.410       .  A
C3358      C3359   1.397       .  A
C3358      H3363   1.084       .  S
C3359      C3360   1.414       .  A
C3359     Br3367   1.922       .  S
C3360      C3361   1.406       .  A
C3361      C3362   1.399       .  A
C3361      H3364   1.084       .  S
C3362     Br3368   1.921       .  S
C3369      C3370   1.412       .  A
C3369      C3374   1.404       .  A
C3370      C3371   1.401       .  A
C3370     Br3386   1.920       .  S
C3371      C3372   1.401       .  A
C3371      H3375   1.084       .  S
C3372      C3376   1.473       .  S
C3372      C3373   1.406       .  A
C3373      C3374   1.397       .  A
C3373     Br3385   1.920       .  S
C3374      H3377   1.084       .  S
C3376      C3378   1.400       .  A
C3376      C3382   1.404       .  A
C3378      C3379   1.400       .  A
C3378      H3383   1.084       .  S
C3379      C3380   1.415       .  A
C3379     Br3387   1.920       .  S
C3380      C3381   1.407       .  A
C3381      C3382   1.396       .  A
C3381      H3384   1.084       .  S
C3382     Br3388   1.919       .  S
C3389      C3390   1.415       .  A
C3389      C3394   1.406       .  A
C3390      C3391   1.400       .  A
C3390     Br3406   1.920       .  S
C3391      C3392   1.401       .  A
C3391      H3395   1.084       .  S
C3392      C3396   1.475       .  S
C3392      C3393   1.406       .  A
C3393      C3394   1.396       .  A
C3393     Br3405   1.920       .  S
C3394      H3397   1.083       .  S
C3396      C3398   1.401       .  A
C3396      C3402   1.406       .  A
C3398      C3399   1.400       .  A
C3398      H3403   1.084       .  S
C3399      C3400   1.415       .  A
C3399     Br3407   1.921       .  S
C3400      C3401   1.405       .  A
C3401      C3402   1.394       .  A
C3401      H3404   1.083       .  S
C3402     Br3408   1.920       .  S
C3409      C3410   1.415       .  A
C3409      C3414   1.407       .  A
C3410      C3411   1.402       .  A
C3410     Br3426   1.920       .  S
C3411      C3412   1.403       .  A
C3411      H3415   1.084       .  S
C3412      C3416   1.483       .  S
C3412      C3413   1.407       .  A
C3413      C3414   1.398       .  A
C3413     Br3425   1.920       .  S
C3414      H3417   1.083       .  S
C3416      C3418   1.403       .  A
C3416      C3422   1.407       .  A
C3418      C3419   1.402       .  A
C3418      H3423   1.084       .  S
C3419      C3420   1.416       .  A
C3419     Br3427   1.920       .  S
C3420      C3421   1.406       .  A
C3421      C3422   1.397       .  A
C3421      H3424   1.083       .  S
C3422     Br3428   1.920       .  S
C3429      C3430   1.416       .  A
C3429      C3434   1.407       .  A
C3430      C3431   1.403       .  A
C3430     Br3446   1.919       .  S
C3431      C3432   1.401       .  A
C3431      H3435   1.084       .  S
C3432      C3436   1.477       .  S
C3432      C3433   1.405       .  A
C3433      C3434   1.397       .  A
C3433     Br3445   1.920       .  S
C3434      H3437   1.083       .  S
C3436      C3438   1.401       .  A
C3436      C3442   1.404       .  A
C3438      C3439   1.403       .  A
C3438      H3443   1.083       .  S
C3439      C3440   1.417       .  A
C3439     Br3447   1.920       .  S
C3440      C3441   1.408       .  A
C3441      C3442   1.397       .  A
C3441      H3444   1.083       .  S
C3442     Br3448   1.919       .  S
C3449      C3450   1.412       .  A
C3449      C3454   1.406       .  A
C3450      C3451   1.401       .  A
C3450     Br3466   1.919       .  S
C3451      C3452   1.404       .  A
C3451      H3455   1.083       .  S
C3452      C3456   1.485       .  S
C3452      C3453   1.409       .  A
C3453      C3454   1.400       .  A
C3453     Br3465   1.919       .  S
C3454      H3457   1.084       .  S
C3456      C3458   1.404   1_655  A
C3456      C3462   1.408   1_655  A
C3458      C3459   1.406       .  A
C3458      H3463   1.084   1_455  S
C3459      C3460   1.418       .  A
C3459     Br3467   1.921       .  S
C3460      C3461   1.405       .  A
C3461      C3462   1.395       .  A
C3461      H3464   1.083       .  S
C3462     Br3468   1.921   1_455  S
C3469      C3470   1.414       .  A
C3469      C3474   1.403       .  A
C3470      C3471   1.399       .  A
C3470     Br3486   1.923       .  S
C3471      C3472   1.402       .  A
C3471      H3475   1.084       .  S
C3472      C3476   1.483       .  S
C3472      C3473   1.410       .  A
C3473      C3474   1.400       .  A
C3473     Br3485   1.919       .  S
C3474      H3477   1.084       .  S
C3476      C3478   1.404       .  A
C3476      C3482   1.407       .  A
C3478      C3479   1.403       .  A
C3478      H3483   1.084       .  S
C3479      C3480   1.415       .  A
C3479     Br3487   1.920       .  S
C3480      C3481   1.406       .  A
C3481      C3482   1.395       .  A
C3481      H3484   1.083       .  S
C3482     Br3488   1.920       .  S
C3489      C3490   1.417       .  A
C3489      C3494   1.409       .  A
C3490      C3491   1.399   1_556  A
C3490     Br3506   1.922       .  S
C3491      C3492   1.400       .  A
C3491      H3495   1.085       .  S
C3492      C3496   1.477       .  S
C3492      C3493   1.404   1_554  A
C3493      C3494   1.400       .  A
C3493     Br3505   1.918   1_556  S
C3494      H3497   1.082       .  S
C3496      C3498   1.401       .  A
C3496      C3502   1.408       .  A
C3498      C3499   1.399       .  A
C3498      H3503   1.084       .  S
C3499      C3500   1.411       .  A
C3499     Br3507   1.920       .  S
C3500      C3501   1.404       .  A
C3501      C3502   1.399       .  A
C3501      H3504   1.083       .  S
C3502     Br3508   1.919       .  S
C3509      C3510   1.418       .  A
C3509      C3514   1.407       .  A
C3510      C3511   1.399       .  A
C3510     Br3526   1.922       .  S
C3511      C3512   1.400       .  A
C3511      H3515   1.084       .  S
C3512      C3516   1.477       .  S
C3512      C3513   1.405       .  A
C3513      C3514   1.398       .  A
C3513     Br3525   1.919       .  S
C3514      H3517   1.083       .  S
C3516      C3518   1.402       .  A
C3516      C3522   1.407       .  A
C3518      C3519   1.401       .  A
C3518      H3523   1.084       .  S
C3519      C3520   1.413       .  A
C3519     Br3527   1.918       .  S
C3520      C3521   1.405       .  A
C3521      C3522   1.397       .  A
C3521      H3524   1.084       .  S
C3522     Br3528   1.920       .  S
C3529      C3530   1.416       .  A
C3529      C3534   1.406       .  A
C3530      C3531   1.398       .  A
C3530     Br3546   1.919       .  S
C3531      C3532   1.399       .  A
C3531      H3535   1.084       .  S
C3532      C3536   1.474       .  S
C3532      C3533   1.405       .  A
C3533      C3534   1.398       .  A
C3533     Br3545   1.918       .  S
C3534      H3537   1.083       .  S
C3536      C3538   1.401       .  A
C3536      C3542   1.407       .  A
C3538      C3539   1.399       .  A
C3538      H3543   1.084       .  S
C3539      C3540   1.411       .  A
C3539     Br3547   1.920       .  S
C3540      C3541   1.404       .  A
C3541      C3542   1.398       .  A
C3541      H3544   1.084       .  S
C3542     Br3548   1.920       .  S
C3549      C3550   1.417       .  A
C3549      C3554   1.407       .  A
C3550      C3551   1.397       .  A
C3550     Br3566   1.922       .  S
C3551      C3552   1.398       .  A
C3551      H3555   1.085       .  S
C3552      C3556   1.473       .  S
C3552      C3553   1.405       .  A
C3553      C3554   1.400       .  A
C3553     Br3565   1.919       .  S
C3554      H3557   1.083       .  S
C3556      C3558   1.399       .  A
C3556      C3562   1.405       .  A
C3558      C3559   1.396       .  A
C3558      H3563   1.084       .  S
C3559      C3560   1.414       .  A
C3559     Br3567   1.919       .  S
C3560      C3561   1.406       .  A
C3561      C3562   1.399       .  A
C3561      H3564   1.084       .  S
C3562     Br3568   1.917       .  S
C3569      C3570   1.417       .  A
C3569      C3574   1.408       .  A
C3570      C3571   1.398       .  A
C3570     Br3586   1.922       .  S
C3571      C3572   1.401       .  A
C3571      H3575   1.084       .  S
C3572      C3576   1.480       .  S
C3572      C3573   1.406       .  A
C3573      C3574   1.399       .  A
C3573     Br3585   1.917       .  S
C3574      H3577   1.084       .  S
C3576      C3578   1.403       .  A
C3576      C3582   1.407       .  A
C3578      C3579   1.401       .  A
C3578      H3583   1.084       .  S
C3579      C3580   1.414       .  A
C3579     Br3587   1.921       .  S
C3580      C3581   1.404       .  A
C3581      C3582   1.396       .  A
C3581      H3584   1.084       .  S
C3582     Br3588   1.918       .  S
C3589      C3590   1.415       .  A
C3589      C3594   1.407       .  A
C3590      C3591   1.398       .  A
C3590     Br3606   1.921       .  S
C3591      C3592   1.402   1_556  A
C3591      H3595   1.084   1_556  S
C3592      C3596   1.481       .  S
C3592      C3593   1.408   1_554  A
C3593      C3594   1.399       .  A
C3593     Br3605   1.919       .  S
C3594      H3597   1.083       .  S
C3596      C3598   1.402       .  A
C3596      C3602   1.408       .  A
C3598      C3599   1.397       .  A
C3598      H3603   1.084       .  S
C3599      C3600   1.415       .  A
C3599     Br3607   1.922       .  S
C3600      C3601   1.406       .  A
C3601      C3602   1.398       .  A
C3601      H3604   1.084       .  S
C3602     Br3608   1.918       .  S
C3609      C3610   1.416       .  A
C3609      C3614   1.408       .  A
C3610      C3611   1.399       .  A
C3610     Br3626   1.921       .  S
C3611      C3612   1.400       .  A
C3611      H3615   1.084       .  S
C3612      C3616   1.479       .  S
C3612      C3613   1.407       .  A
C3613      C3614   1.400       .  A
C3613     Br3625   1.921       .  S
C3614      H3617   1.083       .  S
C3616      C3618   1.400       .  A
C3616      C3622   1.406       .  A
C3618      C3619   1.398       .  A
C3618      H3623   1.085       .  S
C3619      C3620   1.417       .  A
C3619     Br3627   1.922       .  S
C3620      C3621   1.409       .  A
C3621      C3622   1.400       .  A
C3621      H3624   1.083       .  S
C3622     Br3628   1.919       .  S
C3629      C3630   1.416       .  A
C3629      C3634   1.406       .  A
C3630      C3631   1.402       .  A
C3630     Br3646   1.921       .  S
C3631      C3632   1.401       .  A
C3631      H3635   1.084       .  S
C3632      C3636   1.478       .  S
C3632      C3633   1.405       .  A
C3633      C3634   1.397       .  A
C3633     Br3645   1.918       .  S
C3634      H3637   1.083       .  S
C3636      C3638   1.402       .  A
C3636      C3642   1.405       .  A
C3638      C3639   1.405       .  A
C3638      H3643   1.083       .  S
C3639      C3640   1.416       .  A
C3639     Br3647   1.920       .  S
C3640      C3641   1.406       .  A
C3641      C3642   1.396       .  A
C3641      H3644   1.084       .  S
C3642     Br3648   1.920       .  S
C3649      C3650   1.413       .  A
C3649      C3654   1.405       .  A
C3650      C3651   1.400       .  A
C3650     Br3666   1.920       .  S
C3651      C3652   1.402       .  A
C3651      H3655   1.084       .  S
C3652      C3656   1.477       .  S
C3652      C3653   1.406       .  A
C3653      C3654   1.397       .  A
C3653     Br3665   1.920       .  S
C3654      H3657   1.084       .  S
C3656      C3658   1.400       .  A
C3656      C3662   1.407       .  A
C3658      C3659   1.396       .  A
C3658      H3663   1.084       .  S
C3659      C3660   1.415       .  A
C3659     Br3667   1.922       .  S
C3660      C3661   1.407       .  A
C3661      C3662   1.402       .  A
C3661      H3664   1.084       .  S
C3662     Br3668   1.918       .  S
C3669      C3670   1.415       .  A
C3669      C3674   1.406       .  A
C3670      C3671   1.397       .  A
C3670     Br3686   1.923       .  S
C3671      C3672   1.400       .  A
C3671      H3675   1.084       .  S
C3672      C3676   1.478       .  S
C3672      C3673   1.407       .  A
C3673      C3674   1.399       .  A
C3673     Br3685   1.919       .  S
C3674      H3677   1.083       .  S
C3676      C3678   1.401       .  A
C3676      C3682   1.406       .  A
C3678      C3679   1.398       .  A
C3678      H3683   1.084       .  S
C3679      C3680   1.417       .  A
C3679     Br3687   1.921       .  S
C3680      C3681   1.408       .  A
C3681      C3682   1.399       .  A
C3681      H3684   1.083       .  S
C3682     Br3688   1.919       .  S
C3689      C3690   1.413       .  A
C3689      C3694   1.405       .  A
C3690      C3691   1.398       .  A
C3690     Br3706   1.921       .  S
C3691      C3692   1.401       .  A
C3691      H3695   1.084       .  S
C3692      C3696   1.474       .  S
C3692      C3693   1.405       .  A
C3693      C3694   1.396       .  A
C3693     Br3705   1.919       .  S
C3694      H3697   1.084       .  S
C3696      C3698   1.401       .  A
C3696      C3702   1.404       .  A
C3698      C3699   1.401       .  A
C3698      H3703   1.084       .  S
C3699      C3700   1.417       .  A
C3699     Br3707   1.921       .  S
C3700      C3701   1.407       .  A
C3701      C3702   1.394       .  A
C3701      H3704   1.083       .  S
C3702     Br3708   1.920       .  S
C3709      C3710   1.416       .  A
C3709      C3714   1.406       .  A
C3710      C3711   1.397       .  A
C3710     Br3726   1.923       .  S
C3711      C3712   1.399       .  A
C3711      H3715   1.084       .  S
C3712      C3716   1.471       .  S
C3712      C3713   1.404       .  A
C3713      C3714   1.398       .  A
C3713     Br3725   1.918       .  S
C3714      H3717   1.083       .  S
C3716      C3718   1.399       .  A
C3716      C3722   1.403       .  A
C3718      C3719   1.399       .  A
C3718      H3723   1.084       .  S
C3719      C3720   1.416       .  A
C3719     Br3727   1.920       .  S
C3720      C3721   1.408       .  A
C3721      C3722   1.396       .  A
C3721      H3724   1.083       .  S
C3722     Br3728   1.920       .  S
C3729      C3730   1.413       .  A
C3729      C3734   1.405       .  A
C3730      C3731   1.398       .  A
C3730     Br3746   1.921       .  S
C3731      C3732   1.401       .  A
C3731      H3735   1.084       .  S
C3732      C3736   1.472       .  S
C3732      C3733   1.405       .  A
C3733      C3734   1.394       .  A
C3733     Br3745   1.920       .  S
C3734      H3737   1.083       .  S
C3736      C3738   1.401       .  A
C3736      C3742   1.405       .  A
C3738      C3739   1.396       .  A
C3738      H3743   1.084       .  S
C3739      C3740   1.413       .  A
C3739     Br3747   1.921       .  S
C3740      C3741   1.405       .  A
C3741      C3742   1.396       .  A
C3741      H3744   1.084       .  S
C3742     Br3748   1.919       .  S
C3749      C3750   1.417       .  A
C3749      C3754   1.406       .  A
C3750      C3751   1.403       .  A
C3750     Br3766   1.921       .  S
C3751      C3752   1.403       .  A
C3751      H3755   1.084       .  S
C3752      C3756   1.483       .  S
C3752      C3753   1.407       .  A
C3753      C3754   1.396       .  A
C3753     Br3765   1.919       .  S
C3754      H3757   1.083       .  S
C3756      C3758   1.399       .  A
C3756      C3762   1.409       .  A
C3758      C3759   1.397       .  A
C3758      H3763   1.084       .  S
C3759      C3760   1.416       .  A
C3759     Br3767   1.922       .  S
C3760      C3761   1.408       .  A
C3761      C3762   1.405       .  A
C3761      H3764   1.083       .  S
C3762     Br3768   1.919       .  S
C3769      C3770   1.414       .  A
C3769      C3774   1.407       .  A
C3770      C3771   1.400       .  A
C3770     Br3786   1.919       .  S
C3771      C3772   1.401       .  A
C3771      H3775   1.084       .  S
C3772      C3776   1.475   1_655  S
C3772      C3773   1.405       .  A
C3773      C3774   1.397       .  A
C3773     Br3785   1.919       .  S
C3774      H3777   1.083       .  S
C3776      C3778   1.402       .  A
C3776      C3782   1.405       .  A
C3778      C3779   1.402       .  A
C3778      H3783   1.083       .  S
C3779      C3780   1.414       .  A
C3779     Br3787   1.920       .  S
C3780      C3781   1.404       .  A
C3781      C3782   1.395       .  A
C3781      H3784   1.084       .  S
C3782     Br3788   1.919       .  S
C3789      C3790   1.415       .  A
C3789      C3794   1.407       .  A
C3790      C3791   1.401       .  A
C3790     Br3806   1.919       .  S
C3791      C3792   1.401       .  A
C3791      H3795   1.084       .  S
C3792      C3796   1.476       .  S
C3792      C3793   1.405       .  A
C3793      C3794   1.398       .  A
C3793     Br3805   1.920       .  S
C3794      H3797   1.084       .  S
C3796      C3798   1.400       .  A
C3796      C3802   1.406       .  A
C3798      C3799   1.398       .  A
C3798      H3803   1.084       .  S
C3799      C3800   1.413       .  A
C3799     Br3807   1.921       .  S
C3800      C3801   1.407       .  A
C3801      C3802   1.400       .  A
C3801      H3804   1.083       .  S
C3802     Br3808   1.918       .  S
C3809      C3810   1.413       .  A
C3809      C3814   1.405       .  A
C3810      C3811   1.401       .  A
C3810     Br3826   1.919       .  S
C3811      C3812   1.403       .  A
C3811      H3815   1.083       .  S
C3812      C3816   1.482       .  S
C3812      C3813   1.409       .  A
C3813      C3814   1.399       .  A
C3813     Br3825   1.920       .  S
C3814      H3817   1.084       .  S
C3816      C3818   1.403       .  A
C3816      C3822   1.409       .  A
C3818      C3819   1.402       .  A
C3818      H3823   1.084       .  S
C3819      C3820   1.413       .  A
C3819     Br3827   1.920       .  S
C3820      C3821   1.405       .  A
C3821      C3822   1.398       .  A
C3821      H3824   1.083       .  S
C3822     Br3828   1.920       .  S
C3829      C3830   1.417       .  A
C3829      C3834   1.408       .  A
C3830      C3831   1.401       .  A
C3830     Br3846   1.920       .  S
C3831      C3832   1.399       .  A
C3831      H3835   1.084       .  S
C3832      C3836   1.472       .  S
C3832      C3833   1.403       .  A
C3833      C3834   1.396       .  A
C3833     Br3845   1.920       .  S
C3834      H3837   1.083       .  S
C3836      C3838   1.400       .  A
C3836      C3842   1.405       .  A
C3838      C3839   1.398       .  A
C3838      H3843   1.084       .  S
C3839      C3840   1.413       .  A
C3839     Br3847   1.922       .  S
C3840      C3841   1.405       .  A
C3841      C3842   1.399       .  A
C3841      H3844   1.084       .  S
C3842     Br3848   1.918       .  S
C3849      C3850   1.415       .  A
C3849      C3854   1.405       .  A
C3850      C3851   1.397       .  A
C3850     Br3866   1.922       .  S
C3851      C3852   1.401       .  A
C3851      H3855   1.084       .  S
C3852      C3856   1.476       .  S
C3852      C3853   1.406       .  A
C3853      C3854   1.398       .  A
C3853     Br3865   1.918       .  S
C3854      H3857   1.084       .  S
C3856      C3858   1.402       .  A
C3856      C3862   1.405       .  A
C3858      C3859   1.400       .  A
C3858      H3863   1.084       .  S
C3859      C3860   1.415       .  A
C3859     Br3867   1.921       .  S
C3860      C3861   1.406       .  A
C3861      C3862   1.394       .  A
C3861      H3864   1.083       .  S
C3862     Br3868   1.919       .  S
C3869      C3870   1.416       .  A
C3869      C3874   1.405       .  A
C3870      C3871   1.402       .  A
C3870     Br3886   1.920       .  S
C3871      C3872   1.401       .  A
C3871      H3875   1.083       .  S
C3872      C3876   1.475       .  S
C3872      C3873   1.405       .  A
C3873      C3874   1.395       .  A
C3873     Br3885   1.919       .  S
C3874      H3877   1.084       .  S
C3876      C3878   1.401       .  A
C3876      C3882   1.406       .  A
C3878      C3879   1.400       .  A
C3878      H3883   1.084       .  S
C3879      C3880   1.413       .  A
C3879     Br3887   1.920       .  S
C3880      C3881   1.405       .  A
C3881      C3882   1.397       .  A
C3881      H3884   1.083       .  S
C3882     Br3888   1.918       .  S
C3889      C3890   1.414       .  A
C3889      C3894   1.405       .  A
C3890      C3891   1.398       .  A
C3890     Br3906   1.922       .  S
C3891      C3892   1.401       .  A
C3891      H3895   1.084       .  S
C3892      C3896   1.478       .  S
C3892      C3893   1.407       .  A
C3893      C3894   1.398       .  A
C3893     Br3905   1.919       .  S
C3894      H3897   1.084       .  S
C3896      C3898   1.403       .  A
C3896      C3902   1.406       .  A
C3898      C3899   1.399       .  A
C3898      H3903   1.084       .  S
C3899      C3900   1.413       .  A
C3899     Br3907   1.921       .  S
C3900      C3901   1.406       .  A
C3901      C3902   1.398       .  A
C3901      H3904   1.083       .  S
C3902     Br3908   1.919       .  S
C3909      C3910   1.417       .  A
C3909      C3914   1.408       .  A
C3910      C3911   1.401       .  A
C3910     Br3926   1.922       .  S
C3911      C3912   1.401       .  A
C3911      H3915   1.084       .  S
C3912      C3916   1.480       .  S
C3912      C3913   1.405       .  A
C3913      C3914   1.399       .  A
C3913     Br3925   1.918       .  S
C3914      H3917   1.084       .  S
C3916      C3918   1.403       .  A
C3916      C3922   1.406       .  A
C3918      C3919   1.405       .  A
C3918      H3923   1.083       .  S
C3919      C3920   1.415       .  A
C3919     Br3927   1.919       .  S
C3920      C3921   1.405       .  A
C3921      C3922   1.396       .  A
C3921      H3924   1.084       .  S
C3922     Br3928   1.920       .  S
C3929      C3930   1.416       .  A
C3929      C3934   1.407       .  A
C3930      C3931   1.397       .  A
C3930     Br3946   1.922       .  S
C3931      C3932   1.401       .  A
C3931      H3935   1.084       .  S
C3932      C3936   1.478       .  S
C3932      C3933   1.407       .  A
C3933      C3934   1.399       .  A
C3933     Br3945   1.919       .  S
C3934      H3937   1.083       .  S
C3936      C3938   1.401       .  A
C3936      C3942   1.407       .  A
C3938      C3939   1.398       .  A
C3938      H3943   1.084       .  S
C3939      C3940   1.415       .  A
C3939     Br3947   1.922       .  S
C3940      C3941   1.405       .  A
C3941      C3942   1.397       .  A
C3941      H3944   1.084       .  S
C3942     Br3948   1.919       .  S
C3949      C3950   1.411       .  A
C3949      C3954   1.404       .  A
C3950      C3951   1.397       .  A
C3950     Br3966   1.921       .  S
C3951      C3952   1.401       .  A
C3951      H3955   1.084       .  S
C3952      C3956   1.478       .  S
C3952      C3953   1.408       .  A
C3953      C3954   1.401       .  A
C3953     Br3965   1.917       .  S
C3954      H3957   1.084       .  S
C3956      C3958   1.402       .  A
C3956      C3962   1.405       .  A
C3958      C3959   1.403       .  A
C3958      H3963   1.084       .  S
C3959      C3960   1.417       .  A
C3959     Br3967   1.921       .  S
C3960      C3961   1.406       .  A
C3961      C3962   1.396       .  A
C3961      H3964   1.083       .  S
C3962     Br3968   1.919       .  S
C3969      C3970   1.415       .  A
C3969      C3974   1.405       .  A
C3970      C3971   1.398       .  A
C3970     Br3986   1.921       .  S
C3971      C3972   1.401       .  A
C3971      H3975   1.084       .  S
C3972      C3976   1.481   1_545  S
C3972      C3973   1.408       .  A
C3973      C3974   1.401       .  A
C3973     Br3985   1.918       .  S
C3974      H3977   1.083       .  S
C3976      C3978   1.400       .  A
C3976      C3982   1.407       .  A
C3978      C3979   1.397       .  A
C3978      H3983   1.084       .  S
C3979      C3980   1.417       .  A
C3979     Br3987   1.923       .  S
C3980      C3981   1.408       .  A
C3981      C3982   1.401       .  A
C3981      H3984   1.083       .  S
C3982     Br3988   1.918       .  S
C3989      C3990   1.411       .  A
C3989      C3994   1.405       .  A
C3990      C3991   1.399       .  A
C3990     Br4006   1.919       .  S
C3991      C3992   1.400       .  A
C3991      H3995   1.084       .  S
C3992      C3996   1.473       .  S
C3992      C3993   1.406       .  A
C3993      C3994   1.398       .  A
C3993     Br4005   1.920       .  S
C3994      H3997   1.083       .  S
C3996      C3998   1.399       .  A
C3996      C4002   1.405       .  A
C3998      C3999   1.396       .  A
C3998      H4003   1.084       .  S
C3999      C4000   1.414       .  A
C3999     Br4007   1.921       .  S
C4000      C4001   1.407       .  A
C4001      C4002   1.401       .  A
C4001      H4004   1.084       .  S
C4002     Br4008   1.918       .  S
C4009      C4010   1.417       .  A
C4009      C4014   1.406       .  A
C4010      C4011   1.401       .  A
C4010     Br4026   1.921       .  S
C4011      C4012   1.402       .  A
C4011      H4015   1.084       .  S
C4012      C4016   1.481   1_556  S
C4012      C4013   1.407       .  A
C4013      C4014   1.398       .  A
C4013     Br4025   1.920   1_556  S
C4014      H4017   1.084       .  S
C4016      C4018   1.403       .  A
C4016      C4022   1.407       .  A
C4018      C4019   1.402       .  A
C4018      H4023   1.084       .  S
C4019      C4020   1.415       .  A
C4019     Br4027   1.920       .  S
C4020      C4021   1.406       .  A
C4021      C4022   1.396       .  A
C4021      H4024   1.084       .  S
C4022     Br4028   1.920       .  S
C4029      C4030   1.414       .  A
C4029      C4034   1.405       .  A
C4030      C4031   1.401       .  A
C4030     Br4046   1.919       .  S
C4031      C4032   1.403       .  A
C4031      H4035   1.084       .  S
C4032      C4036   1.480       .  S
C4032      C4033   1.407       .  A
C4033      C4034   1.395       .  A
C4033     Br4045   1.920       .  S
C4034      H4037   1.084       .  S
C4036      C4038   1.401       .  A
C4036      C4042   1.408       .  A
C4038      C4039   1.398       .  A
C4038      H4043   1.084       .  S
C4039      C4040   1.413       .  A
C4039     Br4047   1.920       .  S
C4040      C4041   1.406       .  A
C4041      C4042   1.400       .  A
C4041      H4044   1.083       .  S
C4042     Br4048   1.920       .  S
C4049      C4050   1.414       .  A
C4049      C4054   1.406       .  A
C4050      C4051   1.398       .  A
C4050     Br4066   1.921       .  S
C4051      C4052   1.400       .  A
C4051      H4055   1.084       .  S
C4052      C4056   1.476       .  S
C4052      C4053   1.406       .  A
C4053      C4054   1.401       .  A
C4053     Br4065   1.917       .  S
C4054      H4057   1.084       .  S
C4056      C4058   1.399       .  A
C4056      C4062   1.405       .  A
C4058      C4059   1.397       .  A
C4058      H4063   1.084       .  S
C4059      C4060   1.418       .  A
C4059     Br4067   1.923       .  S
C4060      C4061   1.408       .  A
C4061      C4062   1.402       .  A
C4061      H4064   1.083       .  S
C4062     Br4068   1.917       .  S
C4069      C4070   1.414       .  A
C4069      C4074   1.405       .  A
C4070      C4071   1.397       .  A
C4070     Br4086   1.922       .  S
C4071      C4072   1.399       .  A
C4071      H4075   1.084       .  S
C4072      C4076   1.473       .  S
C4072      C4073   1.406       .  A
C4073      C4074   1.399       .  A
C4073     Br4085   1.918       .  S
C4074      H4077   1.084       .  S
C4076      C4078   1.400       .  A
C4076      C4082   1.404       .  A
C4078      C4079   1.401       .  A
C4078      H4083   1.084       .  S
C4079      C4080   1.415       .  A
C4079     Br4087   1.919       .  S
C4080      C4081   1.407       .  A
C4081      C4082   1.396       .  A
C4081      H4084   1.083       .  S
C4082     Br4088   1.920       .  S
C4089      C4090   1.418       .  A
C4089      C4094   1.409       .  A
C4090      C4091   1.400       .  A
C4090     Br4106   1.922       .  S
C4091      C4092   1.400       .  A
C4091      H4095   1.084       .  S
C4092      C4096   1.480       .  S
C4092      C4093   1.406       .  A
C4093      C4094   1.402       .  A
C4093     Br4105   1.918       .  S
C4094      H4097   1.082       .  S
C4096      C4098   1.401       .  A
C4096      C4102   1.407       .  A
C4098      C4099   1.401       .  A
C4098      H4103   1.084       .  S
C4099      C4100   1.416       .  A
C4099     Br4107   1.921       .  S
C4100      C4101   1.407       .  A
C4101      C4102   1.400       .  A
C4101      H4104   1.083       .  S
C4102     Br4108   1.918       .  S
C4109      C4110   1.414       .  A
C4109      C4114   1.405       .  A
C4110      C4111   1.400       .  A
C4110     Br4126   1.921       .  S
C4111      C4112   1.402       .  A
C4111      H4115   1.084       .  S
C4112      C4116   1.477       .  S
C4112      C4113   1.406       .  A
C4113      C4114   1.397       .  A
C4113     Br4125   1.919       .  S
C4114      H4117   1.084       .  S
C4116      C4118   1.401       .  A
C4116      C4122   1.407       .  A
C4118      C4119   1.396       .  A
C4118      H4123   1.084       .  S
C4119      C4120   1.412       .  A
C4119     Br4127   1.921       .  S
C4120      C4121   1.406       .  A
C4121      C4122   1.401       .  A
C4121      H4124   1.084       .  S
C4122     Br4128   1.917       .  S
C4129      C4130   1.414       .  A
C4129      C4134   1.405       .  A
C4130      C4131   1.399       .  A
C4130     Br4146   1.920       .  S
C4131      C4132   1.400       .  A
C4131      H4135   1.084       .  S
C4132      C4136   1.470       .  S
C4132      C4133   1.405       .  A
C4133      C4134   1.395       .  A
C4133     Br4145   1.919       .  S
C4134      H4137   1.084       .  S
C4136      C4138   1.398       .  A
C4136      C4142   1.405       .  A
C4138      C4139   1.393       .  A
C4138      H4143   1.084       .  S
C4139      C4140   1.413       .  A
C4139     Br4147   1.922       .  S
C4140      C4141   1.407       .  A
C4141      C4142   1.402       .  A
C4141      H4144   1.084       .  S
C4142     Br4148   1.918       .  S
C4149      C4150   1.411       .  A
C4149      C4154   1.403       .  A
C4150      C4151   1.398       .  A
C4150     Br4166   1.922       .  S
C4151      C4152   1.404       .  A
C4151      H4155   1.083       .  S
C4152      C4156   1.480   1_556  S
C4152      C4153   1.409       .  A
C4153      C4154   1.397       .  A
C4153     Br4165   1.920       .  S
C4154      H4157   1.084       .  S
C4156      C4158   1.401       .  A
C4156      C4162   1.407       .  A
C4158      C4159   1.397       .  A
C4158      H4163   1.084       .  S
C4159      C4160   1.417       .  A
C4159     Br4167   1.923       .  S
C4160      C4161   1.407       .  A
C4161      C4162   1.399       .  A
C4161      H4164   1.083       .  S
C4162     Br4168   1.919       .  S
C4169      C4170   1.412       .  A
C4169      C4174   1.405       .  A
C4170      C4171   1.397       .  A
C4170     Br4186   1.921       .  S
C4171      C4172   1.402       .  A
C4171      H4175   1.084       .  S
C4172      C4176   1.477       .  S
C4172      C4173   1.409       .  A
C4173      C4174   1.397       .  A
C4173     Br4185   1.920       .  S
C4174      H4177   1.084       .  S
C4176      C4178   1.401       .  A
C4176      C4182   1.408       .  A
C4178      C4179   1.394       .  A
C4178      H4183   1.084       .  S
C4179      C4180   1.412       .  A
C4179     Br4187   1.922       .  S
C4180      C4181   1.405       .  A
C4181      C4182   1.400       .  A
C4181      H4184   1.083       .  S
C4182     Br4188   1.919       .  S
C4189      C4190   1.414       .  A
C4189      C4194   1.406       .  A
C4190      C4191   1.399       .  A
C4190     Br4206   1.921       .  S
C4191      C4192   1.402       .  A
C4191      H4195   1.084       .  S
C4192      C4196   1.480       .  S
C4192      C4193   1.407       .  A
C4193      C4194   1.399       .  A
C4193     Br4205   1.919       .  S
C4194      H4197   1.083       .  S
C4196      C4198   1.403       .  A
C4196      C4202   1.406       .  A
C4198      C4199   1.404       .  A
C4198      H4203   1.084       .  S
C4199      C4200   1.417       .  A
C4199     Br4207   1.920       .  S
C4200      C4201   1.406       .  A
C4201      C4202   1.395       .  A
C4201      H4204   1.083       .  S
C4202     Br4208   1.920       .  S
C4209      C4210   1.416       .  A
C4209      C4214   1.407       .  A
C4210      C4211   1.401       .  A
C4210     Br4226   1.921       .  S
C4211      C4212   1.401       .  A
C4211      H4215   1.084       .  S
C4212      C4216   1.478       .  S
C4212      C4213   1.405       .  A
C4213      C4214   1.399       .  A
C4213     Br4225   1.917       .  S
C4214      H4217   1.083       .  S
C4216      C4218   1.400       .  A
C4216      C4222   1.406       .  A
C4218      C4219   1.402       .  A
C4218      H4223   1.084       .  S
C4219      C4220   1.418       .  A
C4219     Br4227   1.921       .  S
C4220      C4221   1.407       .  A
C4221      C4222   1.399       .  A
C4221      H4224   1.083       .  S
C4222     Br4228   1.920       .  S
C4229      C4230   1.411       .  A
C4229      C4234   1.405       .  A
C4230      C4231   1.399       .  A
C4230     Br4246   1.919       .  S
C4231      C4232   1.402       .  A
C4231      H4235   1.084       .  S
C4232      C4236   1.477       .  S
C4232      C4233   1.407       .  A
C4233      C4234   1.398       .  A
C4233     Br4245   1.919       .  S
C4234      H4237   1.084       .  S
C4236      C4238   1.401       .  A
C4236      C4242   1.406       .  A
C4238      C4239   1.402       .  A
C4238      H4243   1.084       .  S
C4239      C4240   1.417       .  A
C4239     Br4247   1.920       .  S
C4240      C4241   1.407       .  A
C4241      C4242   1.396       .  A
C4241      H4244   1.083       .  S
C4242     Br4248   1.920       .  S
C4249      C4250   1.416       .  A
C4249      C4254   1.406       .  A
C4250      C4251   1.398       .  A
C4250     Br4266   1.923       .  S
C4251      C4252   1.400       .  A
C4251      H4255   1.084       .  S
C4252      C4256   1.473       .  S
C4252      C4253   1.405       .  A
C4253      C4254   1.398       .  A
C4253     Br4265   1.918       .  S
C4254      H4257   1.083       .  S
C4256      C4258   1.398       .  A
C4256      C4262   1.406       .  A
C4258      C4259   1.397       .  A
C4258      H4263   1.084       .  S
C4259      C4260   1.416       .  A
C4259     Br4267   1.921       .  S
C4260      C4261   1.406       .  A
C4261      C4262   1.398       .  A
C4261      H4264   1.083       .  S
C4262     Br4268   1.919       .  S
C4269      C4270   1.416       .  A
C4269      C4274   1.408       .  A
C4270      C4271   1.400       .  A
C4270     Br4286   1.920       .  S
C4271      C4272   1.400       .  A
C4271      H4275   1.084       .  S
C4272      C4276   1.475       .  S
C4272      C4273   1.405       .  A
C4273      C4274   1.398       .  A
C4273     Br4285   1.920       .  S
C4274      H4277   1.083       .  S
C4276      C4278   1.402       .  A
C4276      C4282   1.406       .  A
C4278      C4279   1.400       .  A
C4278      H4283   1.084       .  S
C4279      C4280   1.413       .  A
C4279     Br4287   1.920       .  S
C4280      C4281   1.404       .  A
C4281      C4282   1.395       .  A
C4281      H4284   1.084       .  S
C4282     Br4288   1.919       .  S
C4289      C4290   1.417       .  A
C4289      C4294   1.407       .  A
C4290      C4291   1.399       .  A
C4290     Br4306   1.923       .  S
C4291      C4292   1.401       .  A
C4291      H4295   1.084       .  S
C4292      C4296   1.484       .  S
C4292      C4293   1.408       .  A
C4293      C4294   1.402       .  A
C4293     Br4305   1.918       .  S
C4294      H4297   1.083       .  S
C4296      C4298   1.403       .  A
C4296      C4302   1.407       .  A
C4298      C4299   1.404       .  A
C4298      H4303   1.084       .  S
C4299      C4300   1.417       .  A
C4299     Br4307   1.920       .  S
C4300      C4301   1.408       .  A
C4301      C4302   1.398       .  A
C4301      H4304   1.084       .  S
C4302     Br4308   1.920       .  S
C4309      C4310   1.418       .  A
C4309      C4314   1.407       .  A
C4310      C4311   1.400       .  A
C4310     Br4326   1.921       .  S
C4311      C4312   1.400       .  A
C4311      H4315   1.084       .  S
C4312      C4316   1.473       .  S
C4312      C4313   1.404       .  A
C4313      C4314   1.395       .  A
C4313     Br4325   1.920       .  S
C4314      H4317   1.083       .  S
C4316      C4318   1.398       .  A
C4316      C4322   1.405       .  A
C4318      C4319   1.395       .  A
C4318      H4323   1.084       .  S
C4319      C4320   1.416       .  A
C4319     Br4327   1.922       .  S
C4320      C4321   1.408       .  A
C4321      C4322   1.400       .  A
C4321      H4324   1.083       .  S
C4322     Br4328   1.918       .  S
C4329      C4330   1.418       .  A
C4329      C4334   1.409       .  A
C4330      C4331   1.397       .  A
C4330     Br4346   1.922       .  S
C4331      C4332   1.399       .  A
C4331      H4335   1.084       .  S
C4332      C4336   1.477       .  S
C4332      C4333   1.405       .  A
C4333      C4334   1.401       .  A
C4333     Br4345   1.918       .  S
C4334      H4337   1.084       .  S
C4336      C4338   1.402       .  A
C4336      C4342   1.406       .  A
C4338      C4339   1.400       .  A
C4338      H4343   1.084       .  S
C4339      C4340   1.413       .  A
C4339     Br4347   1.920       .  S
C4340      C4341   1.404       .  A
C4341      C4342   1.396       .  A
C4341      H4344   1.084       .  S
C4342     Br4348   1.919       .  S
C4349      C4350   1.417       .  A
C4349      C4354   1.408       .  A
C4350      C4351   1.397       .  A
C4350     Br4366   1.922       .  S
C4351      C4352   1.398       .  A
C4351      H4355   1.084       .  S
C4352      C4356   1.473       .  S
C4352      C4353   1.404       .  A
C4353      C4354   1.400       .  A
C4353     Br4365   1.918       .  S
C4354      H4357   1.083       .  S
C4356      C4358   1.399       .  A
C4356      C4362   1.404       .  A
C4358      C4359   1.400       .  A
C4358      H4363   1.084       .  S
C4359      C4360   1.417       .  A
C4359     Br4367   1.921       .  S
C4360      C4361   1.407       .  A
C4361      C4362   1.397       .  A
C4361      H4364   1.084       .  S
C4362     Br4368   1.919       .  S
C4369      C4370   1.417       .  A
C4369      C4374   1.407       .  A
C4370      C4371   1.403       .  A
C4370     Br4386   1.921       .  S
C4371      C4372   1.403       .  A
C4371      H4375   1.084       .  S
C4372      C4376   1.487       .  S
C4372      C4373   1.408       .  A
C4373      C4374   1.401       .  A
C4373     Br4385   1.920       .  S
C4374      H4377   1.083       .  S
C4376      C4378   1.404       .  A
C4376      C4382   1.411       .  A
C4378      C4379   1.399       .  A
C4378      H4383   1.084       .  S
C4379      C4380   1.411       .  A
C4379     Br4387   1.923       .  S
C4380      C4381   1.403       .  A
C4381      C4382   1.402       .  A
C4381      H4384   1.084       .  S
C4382     Br4388   1.918       .  S
C4389      C4390   1.415       .  A
C4389      C4394   1.406       .  A
C4390      C4391   1.399       .  A
C4390     Br4406   1.922       .  S
C4391      C4392   1.403       .  A
C4391      H4395   1.084       .  S
C4392      C4396   1.486       .  S
C4392      C4393   1.409       .  A
C4393      C4394   1.402       .  A
C4393     Br4405   1.919       .  S
C4394      H4397   1.083       .  S
C4396      C4398   1.402       .  A
C4396      C4402   1.408       .  A
C4398      C4399   1.401       .  A
C4398      H4403   1.083       .  S
C4399      C4400   1.417       .  A
C4399     Br4407   1.921       .  S
C4400      C4401   1.408       .  A
C4401      C4402   1.401       .  A
C4401      H4404   1.083       .  S
C4402     Br4408   1.920       .  S
C4409      C4410   1.416       .  A
C4409      C4414   1.406       .  A
C4410      C4411   1.402       .  A
C4410     Br4426   1.921       .  S
C4411      C4412   1.402       .  A
C4411      H4415   1.083       .  S
C4412      C4416   1.477       .  S
C4412      C4413   1.404       .  A
C4413      C4414   1.396       .  A
C4413     Br4425   1.918       .  S
C4414      H4417   1.083       .  S
C4416      C4418   1.400       .  A
C4416      C4422   1.405       .  A
C4418      C4419   1.400       .  A
C4418      H4423   1.083       .  S
C4419      C4420   1.417       .  A
C4419     Br4427   1.921       .  S
C4420      C4421   1.406       .  A
C4421      C4422   1.399       .  A
C4421      H4424   1.084       .  S
C4422     Br4428   1.918       .  S
C4429      C4430   1.415       .  A
C4429      C4434   1.406       .  A
C4430      C4431   1.402       .  A
C4430     Br4446   1.921       .  S
C4431      C4432   1.402       .  A
C4431      H4435   1.084       .  S
C4432      C4436   1.477   1_565  S
C4432      C4433   1.405       .  A
C4433      C4434   1.395       .  A
C4433     Br4445   1.920       .  S
C4434      H4437   1.084       .  S
C4436      C4438   1.399       .  A
C4436      C4442   1.405       .  A
C4438      C4439   1.398       .  A
C4438      H4443   1.084       .  S
C4439      C4440   1.419       .  A
C4439     Br4447   1.924       .  S
C4440      C4441   1.408       .  A
C4441      C4442   1.400       .  A
C4441      H4444   1.084       .  S
C4442     Br4448   1.918       .  S
C4449      C4450   1.414       .  A
C4449      C4454   1.405       .  A
C4450      C4451   1.396       .  A
C4450     Br4466   1.922       .  S
C4451      C4452   1.402       .  A
C4451      H4455   1.084       .  S
C4452      C4456   1.480       .  S
C4452      C4453   1.408       .  A
C4453      C4454   1.399       .  A
C4453     Br4465   1.919       .  S
C4454      H4457   1.083       .  S
C4456      C4458   1.403       .  A
C4456      C4462   1.408       .  A
C4458      C4459   1.399       .  A
C4458      H4463   1.083       .  S
C4459      C4460   1.414       .  A
C4459     Br4467   1.921       .  S
C4460      C4461   1.406       .  A
C4461      C4462   1.396       .  A
C4461      H4464   1.083       .  S
C4462     Br4468   1.921       .  S
C4469      C4470   1.415       .  A
C4469      C4474   1.406       .  A
C4470      C4471   1.398       .  A
C4470     Br4486   1.922       .  S
C4471      C4472   1.401       .  A
C4471      H4475   1.084       .  S
C4472      C4476   1.478       .  S
C4472      C4473   1.406       .  A
C4473      C4474   1.400       .  A
C4473     Br4485   1.918       .  S
C4474      H4477   1.083       .  S
C4476      C4478   1.401       .  A
C4476      C4482   1.406       .  A
C4478      C4479   1.399       .  A
C4478      H4483   1.084       .  S
C4479      C4480   1.416       .  A
C4479     Br4487   1.922       .  S
C4480      C4481   1.407       .  A
C4481      C4482   1.399       .  A
C4481      H4484   1.083       .  S
C4482     Br4488   1.918       .  S
C4489      C4490   1.418       .  A
C4489      C4494   1.409       .  A
C4490      C4491   1.399       .  A
C4490     Br4506   1.921       .  S
C4491      C4492   1.399       .  A
C4491      H4495   1.084       .  S
C4492      C4496   1.478   1_545  S
C4492      C4493   1.406       .  A
C4493      C4494   1.401       .  A
C4493     Br4505   1.919       .  S
C4494      H4497   1.083       .  S
C4496      C4498   1.402       .  A
C4496      C4502   1.408       .  A
C4498      C4499   1.401       .  A
C4498      H4503   1.084       .  S
C4499      C4500   1.412       .  A
C4499     Br4507   1.920       .  S
C4500      C4501   1.404       .  A
C4501      C4502   1.398       .  A
C4501      H4504   1.083       .  S
C4502     Br4508   1.920       .  S
C4509      C4510   1.417       .  A
C4509      C4514   1.408       .  A
C4510      C4511   1.398       .  A
C4510     Br4526   1.922       .  S
C4511      C4512   1.400       .  A
C4511      H4515   1.084       .  S
C4512      C4516   1.477       .  S
C4512      C4513   1.405       .  A
C4513      C4514   1.399       .  A
C4513     Br4525   1.918       .  S
C4514      H4517   1.083       .  S
C4516      C4518   1.400       .  A
C4516      C4522   1.405       .  A
C4518      C4519   1.400       .  A
C4518      H4523   1.084       .  S
C4519      C4520   1.416       .  A
C4519     Br4527   1.921       .  S
C4520      C4521   1.408       .  A
C4521      C4522   1.400       .  A
C4521      H4524   1.084       .  S
C4522     Br4528   1.919       .  S
C4529      C4530   1.413       .  A
C4529      C4534   1.404       .  A
C4530      C4531   1.399       .  A
C4530     Br4546   1.922       .  S
C4531      C4532   1.403       .  A
C4531      H4535   1.084       .  S
C4532      C4536   1.485       .  S
C4532      C4533   1.411       .  A
C4533      C4534   1.401       .  A
C4533     Br4545   1.919       .  S
C4534      H4537   1.083       .  S
C4536      C4538   1.402       .  A
C4536      C4542   1.410       .  A
C4538      C4539   1.399       .  A
C4538      H4543   1.084       .  S
C4539      C4540   1.415       .  A
C4539     Br4547   1.922       .  S
C4540      C4541   1.406       .  A
C4541      C4542   1.402       .  A
C4541      H4544   1.084       .  S
C4542     Br4548   1.919       .  S
C4549      C4550   1.414       .  A
C4549      C4554   1.406       .  A
C4550      C4551   1.401       .  A
C4550     Br4566   1.921       .  S
C4551      C4552   1.402       .  A
C4551      H4555   1.084       .  S
C4552      C4556   1.476       .  S
C4552      C4553   1.405       .  A
C4553      C4554   1.395       .  A
C4553     Br4565   1.919       .  S
C4554      H4557   1.083       .  S
C4556      C4558   1.402       .  A
C4556      C4562   1.405       .  A
C4558      C4559   1.400       .  A
C4558      H4563   1.084       .  S
C4559      C4560   1.414       .  A
C4559     Br4567   1.920       .  S
C4560      C4561   1.406       .  A
C4561      C4562   1.397       .  A
C4561      H4564   1.084       .  S
C4562     Br4568   1.919       .  S
C4569      C4570   1.412       .  A
C4569      C4574   1.404       .  A
C4570      C4571   1.400       .  A
C4570     Br4586   1.920       .  S
C4571      C4572   1.404       .  A
C4571      H4575   1.084       .  S
C4572      C4576   1.481   1_545  S
C4572      C4573   1.409       .  A
C4573      C4574   1.396       .  A
C4573     Br4585   1.921       .  S
C4574      H4577   1.083       .  S
C4576      C4578   1.401       .  A
C4576      C4582   1.408       .  A
C4578      C4579   1.397       .  A
C4578      H4583   1.085       .  S
C4579      C4580   1.417       .  A
C4579     Br4587   1.922       .  S
C4580      C4581   1.407       .  A
C4581      C4582   1.399       .  A
C4581      H4584   1.083       .  S
C4582     Br4588   1.920       .  S
C4589      C4590   1.417       .  A
C4589      C4594   1.409       .  A
C4590      C4591   1.399       .  A
C4590     Br4606   1.921       .  S
C4591      C4592   1.400       .  A
C4591      H4595   1.084       .  S
C4592      C4596   1.481       .  S
C4592      C4593   1.407       .  A
C4593      C4594   1.401       .  A
C4593     Br4605   1.920       .  S
C4594      H4597   1.084       .  S
C4596      C4598   1.402       .  A
C4596      C4602   1.407       .  A
C4598      C4599   1.403       .  A
C4598      H4603   1.084       .  S
C4599      C4600   1.417       .  A
C4599     Br4607   1.920       .  S
C4600      C4601   1.407       .  A
C4601      C4602   1.398       .  A
C4601      H4604   1.083       .  S
C4602     Br4608   1.921       .  S
C4609      C4610   1.415       .  A
C4609      C4614   1.406       .  A
C4610      C4611   1.404       .  A
C4610     Br4626   1.919       .  S
C4611      C4612   1.404       .  A
C4611      H4615   1.084       .  S
C4612      C4616   1.485       .  S
C4612      C4613   1.407       .  A
C4613      C4614   1.399       .  A
C4613     Br4625   1.919       .  S
C4614      H4617   1.084       .  S
C4616      C4618   1.403       .  A
C4616      C4622   1.406       .  A
C4618      C4619   1.404       .  A
C4618      H4623   1.084       .  S
C4619      C4620   1.418       .  A
C4619     Br4627   1.921       .  S
C4620      C4621   1.407       .  A
C4621      C4622   1.399       .  A
C4621      H4624   1.084       .  S
C4622     Br4628   1.919       .  S
C4629      C4630   1.412       .  A
C4629      C4634   1.403       .  A
C4630      C4631   1.397       .  A
C4630     Br4646   1.923       .  S
C4631      C4632   1.401       .  A
C4631      H4635   1.083       .  S
C4632      C4636   1.475       .  S
C4632      C4633   1.407       .  A
C4633      C4634   1.399       .  A
C4633     Br4645   1.917       .  S
C4634      H4637   1.084       .  S
C4636      C4638   1.401       .  A
C4636      C4642   1.406       .  A
C4638      C4639   1.400       .  A
C4638      H4643   1.084       .  S
C4639      C4640   1.415       .  A
C4639     Br4647   1.920       .  S
C4640      C4641   1.406       .  A
C4641      C4642   1.396       .  A
C4641      H4644   1.083       .  S
C4642     Br4648   1.920       .  S
C4649      C4650   1.417       .  A
C4649      C4654   1.405       .  A
C4650      C4651   1.399       .  A
C4650     Br4666   1.922       .  S
C4651      C4652   1.402       .  A
C4651      H4655   1.084       .  S
C4652      C4656   1.480   1_655  S
C4652      C4653   1.407       .  A
C4653      C4654   1.398       .  A
C4653     Br4665   1.919       .  S
C4654      H4657   1.083       .  S
C4656      C4658   1.401       .  A
C4656      C4662   1.408       .  A
C4658      C4659   1.396       .  A
C4658      H4663   1.084       .  S
C4659      C4660   1.414       .  A
C4659     Br4667   1.922       .  S
C4660      C4661   1.407       .  A
C4661      C4662   1.401       .  A
C4661      H4664   1.084       .  S
C4662     Br4668   1.919       .  S
C4669      C4670   1.415       .  A
C4669      C4674   1.405       .  A
C4670      C4671   1.400       .  A
C4670     Br4686   1.922       .  S
C4671      C4672   1.402       .  A
C4671      H4675   1.084       .  S
C4672      C4676   1.485       .  S
C4672      C4673   1.409       .  A
C4673      C4674   1.401       .  A
C4673     Br4685   1.919       .  S
C4674      H4677   1.083       .  S
C4676      C4678   1.402       .  A
C4676      C4682   1.408       .  A
C4678      C4679   1.401       .  A
C4678      H4683   1.084       .  S
C4679      C4680   1.417       .  A
C4679     Br4687   1.921       .  S
C4680      C4681   1.408       .  A
C4681      C4682   1.400       .  A
C4681      H4684   1.083       .  S
C4682     Br4688   1.920       .  S
C4689      C4690   1.413       .  A
C4689      C4694   1.405       .  A
C4690      C4691   1.399       .  A
C4690     Br4706   1.922       .  S
C4691      C4692   1.403       .  A
C4691      H4695   1.084       .  S
C4692      C4696   1.482       .  S
C4692      C4693   1.409       .  A
C4693      C4694   1.401       .  A
C4693     Br4705   1.918       .  S
C4694      H4697   1.084       .  S
C4696      C4698   1.403       .  A
C4696      C4702   1.407       .  A
C4698      C4699   1.402       .  A
C4698      H4703   1.084       .  S
C4699      C4700   1.416       .  A
C4699     Br4707   1.921       .  S
C4700      C4701   1.406       .  A
C4701      C4702   1.397       .  A
C4701      H4704   1.083       .  S
C4702     Br4708   1.919       .  S
C4709      C4710   1.413       .  A
C4709      C4714   1.406       .  A
C4710      C4711   1.397       .  A
C4710     Br4726   1.920       .  S
C4711      C4712   1.400       .  A
C4711      H4715   1.084       .  S
C4712      C4716   1.476       .  S
C4712      C4713   1.406       .  A
C4713      C4714   1.401       .  A
C4713     Br4725   1.917       .  S
C4714      H4717   1.083       .  S
C4716      C4718   1.400       .  A
C4716      C4722   1.405       .  A
C4718      C4719   1.401       .  A
C4718      H4723   1.084       .  S
C4719      C4720   1.418       .  A
C4719     Br4727   1.921       .  S
C4720      C4721   1.408       .  A
C4721      C4722   1.398       .  A
C4721      H4724   1.083       .  S
C4722     Br4728   1.919       .  S
C4729      C4730   1.418       .  A
C4729      C4734   1.408       .  A
C4730      C4731   1.401       .  A
C4730     Br4746   1.921       .  S
C4731      C4732   1.400       .  A
C4731      H4735   1.084       .  S
C4732      C4736   1.475       .  S
C4732      C4733   1.404       .  A
C4733      C4734   1.398       .  A
C4733     Br4745   1.919       .  S
C4734      H4737   1.083       .  S
C4736      C4738   1.400       .  A
C4736      C4742   1.405       .  A
C4738      C4739   1.399       .  A
C4738      H4743   1.084       .  S
C4739      C4740   1.416       .  A
C4739     Br4747   1.922       .  S
C4740      C4741   1.406       .  A
C4741      C4742   1.396       .  A
C4741      H4744   1.084       .  S
C4742     Br4748   1.918       .  S
C4749      C4750   1.411       .  A
C4749      C4754   1.404       .  A
C4750      C4751   1.399       .  A
C4750     Br4766   1.919       .  S
C4751      C4752   1.402       .  A
C4751      H4755   1.084       .  S
C4752      C4756   1.478   1_556  S
C4752      C4753   1.408       .  A
C4753      C4754   1.397       .  A
C4753     Br4765   1.921       .  S
C4754      H4757   1.083       .  S
C4756      C4758   1.401       .  A
C4756      C4762   1.407       .  A
C4758      C4759   1.398       .  A
C4758      H4763   1.084       .  S
C4759      C4760   1.415       .  A
C4759     Br4767   1.921       .  S
C4760      C4761   1.407       .  A
C4761      C4762   1.397       .  A
C4761      H4764   1.083       .  S
C4762     Br4768   1.920       .  S
C4769      C4770   1.417       .  A
C4769      C4774   1.407       .  A
C4770      C4771   1.402       .  A
C4770     Br4786   1.920       .  S
C4771      C4772   1.401       .  A
C4771      H4775   1.084       .  S
C4772      C4776   1.475       .  S
C4772      C4773   1.405       .  A
C4773      C4774   1.395       .  A
C4773     Br4785   1.921       .  S
C4774      H4777   1.084       .  S
C4776      C4778   1.401       .  A
C4776      C4782   1.407       .  A
C4778      C4779   1.399       .  A
C4778      H4783   1.084       .  S
C4779      C4780   1.414       .  A
C4779     Br4787   1.922       .  S
C4780      C4781   1.403       .  A
C4781      C4782   1.396       .  A
C4781      H4784   1.084       .  S
C4782     Br4788   1.919       .  S
C4789      C4790   1.416       .  A
C4789      C4794   1.405       .  A
C4790      C4791   1.403       .  A
C4790     Br4806   1.920       .  S
C4791      C4792   1.403       .  A
C4791      H4795   1.084       .  S
C4792      C4796   1.482       .  S
C4792      C4793   1.408       .  A
C4793      C4794   1.396       .  A
C4793     Br4805   1.921       .  S
C4794      H4797   1.083       .  S
C4796      C4798   1.401       .  A
C4796      C4802   1.408       .  A
C4798      C4799   1.396       .  A
C4798      H4803   1.084       .  S
C4799      C4800   1.416       .  A
C4799     Br4807   1.923       .  S
C4800      C4801   1.408       .  A
C4801      C4802   1.403       .  A
C4801      H4804   1.083       .  S
C4802     Br4808   1.918       .  S
C4809      C4810   1.416       .  A
C4809      C4814   1.407       .  A
C4810      C4811   1.399       .  A
C4810     Br4826   1.921       .  S
C4811      C4812   1.401       .  A
C4811      H4815   1.084       .  S
C4812      C4816   1.482       .  S
C4812      C4813   1.408       .  A
C4813      C4814   1.400       .  A
C4813     Br4825   1.919       .  S
C4814      H4817   1.084       .  S
C4816      C4818   1.401       .  A
C4816      C4822   1.410       .  A
C4818      C4819   1.396       .  A
C4818      H4823   1.084       .  S
C4819      C4820   1.412       .  A
C4819     Br4827   1.922       .  S
C4820      C4821   1.404       .  A
C4821      C4822   1.402       .  A
C4821      H4824   1.083       .  S
C4822     Br4828   1.918       .  S
C4829      C4830   1.415       .  A
C4829      C4834   1.406       .  A
C4830      C4831   1.400       .  A
C4830     Br4846   1.921       .  S
C4831      C4832   1.401       .  A
C4831      H4835   1.084       .  S
C4832      C4836   1.481       .  S
C4832      C4833   1.408       .  A
C4833      C4834   1.401       .  A
C4833     Br4845   1.919       .  S
C4834      H4837   1.084       .  S
C4836      C4838   1.402       .  A
C4836      C4842   1.409       .  A
C4838      C4839   1.398       .  A
C4838      H4843   1.084       .  S
C4839      C4840   1.411       .  A
C4839     Br4847   1.921       .  S
C4840      C4841   1.404       .  A
C4841      C4842   1.400       .  A
C4841      H4844   1.084       .  S
C4842     Br4848   1.917       .  S
C4849      C4850   1.418       .  A
C4849      C4854   1.406       .  A
C4850      C4851   1.402       .  A
C4850     Br4866   1.921       .  S
C4851      C4852   1.401       .  A
C4851      H4855   1.084       .  S
C4852      C4856   1.478       .  S
C4852      C4853   1.406       .  A
C4853      C4854   1.396       .  A
C4853     Br4865   1.920       .  S
C4854      H4857   1.083       .  S
C4856      C4858   1.403       .  A
C4856      C4862   1.408       .  A
C4858      C4859   1.402       .  A
C4858      H4863   1.083       .  S
C4859      C4860   1.412       .  A
C4859     Br4867   1.920       .  S
C4860      C4861   1.402       .  A
C4861      C4862   1.395       .  A
C4861      H4864   1.084       .  S
C4862     Br4868   1.920       .  S
C4869      C4870   1.415       .  A
C4869      C4874   1.408       .  A
C4870      C4871   1.400       .  A
C4870     Br4886   1.920       .  S
C4871      C4872   1.401       .  A
C4871      H4875   1.084       .  S
C4872      C4876   1.479   1_556  S
C4872      C4873   1.406       .  A
C4873      C4874   1.400       .  A
C4873     Br4885   1.920   1_556  S
C4874      H4877   1.084       .  S
C4876      C4878   1.404       .  A
C4876      C4882   1.407       .  A
C4878      C4879   1.402       .  A
C4878      H4883   1.084       .  S
C4879      C4880   1.413       .  A
C4879     Br4887   1.920       .  S
C4880      C4881   1.404       .  A
C4881      C4882   1.395       .  A
C4881      H4884   1.083       .  S
C4882     Br4888   1.919       .  S
C4889      C4890   1.414       .  A
C4889      C4894   1.404       .  A
C4890      C4891   1.400       .  A
C4890     Br4906   1.923       .  S
C4891      C4892   1.403       .  A
C4891      H4895   1.084       .  S
C4892      C4896   1.485       .  S
C4892      C4893   1.409       .  A
C4893      C4894   1.398       .  A
C4893     Br4905   1.919       .  S
C4894      H4897   1.083       .  S
C4896      C4898   1.404       .  A
C4896      C4902   1.410       .  A
C4898      C4899   1.397       .  A
C4898      H4903   1.084       .  S
C4899      C4900   1.412       .  A
C4899     Br4907   1.922       .  S
C4900      C4901   1.405       .  A
C4901      C4902   1.402       .  A
C4901      H4904   1.084       .  S
C4902     Br4908   1.918       .  S
C4909      C4910   1.418       .  A
C4909      C4914   1.407       .  A
C4910      C4911   1.398       .  A
C4910     Br4926   1.923       .  S
C4911      C4912   1.398       .  A
C4911      H4915   1.084       .  S
C4912      C4916   1.473       .  S
C4912      C4913   1.405       .  A
C4913      C4914   1.398       .  A
C4913     Br4925   1.918       .  S
C4914      H4917   1.083       .  S
C4916      C4918   1.401       .  A
C4916      C4922   1.403       .  A
C4918      C4919   1.403       .  A
C4918      H4923   1.084       .  S
C4919      C4920   1.418       .  A
C4919     Br4927   1.920       .  S
C4920      C4921   1.407       .  A
C4921      C4922   1.393       .  A
C4921      H4924   1.083       .  S
C4922     Br4928   1.920       .  S
C4929      C4930   1.418       .  A
C4929      C4934   1.408       .  A
C4930      C4931   1.398       .  A
C4930     Br4946   1.923       .  S
C4931      C4932   1.400       .  A
C4931      H4935   1.084       .  S
C4932      C4936   1.477       .  S
C4932      C4933   1.405       .  A
C4933      C4934   1.399       .  A
C4933     Br4945   1.919       .  S
C4934      H4937   1.084       .  S
C4936      C4938   1.402       .  A
C4936      C4942   1.406       .  A
C4938      C4939   1.400       .  A
C4938      H4943   1.084       .  S
C4939      C4940   1.415       .  A
C4939     Br4947   1.922       .  S
C4940      C4941   1.406       .  A
C4941      C4942   1.396       .  A
C4941      H4944   1.083       .  S
C4942     Br4948   1.919       .  S
C4949      C4950   1.415       .  A
C4949      C4954   1.406       .  A
C4950      C4951   1.398       .  A
C4950     Br4966   1.922       .  S
C4951      C4952   1.400       .  A
C4951      H4955   1.083       .  S
C4952      C4956   1.473       .  S
C4952      C4953   1.404       .  A
C4953      C4954   1.400       .  A
C4953     Br4965   1.917       .  S
C4954      H4957   1.084       .  S
C4956      C4958   1.401       .  A
C4956      C4962   1.404       .  A
C4958      C4959   1.401       .  A
C4958      H4963   1.084       .  S
C4959      C4960   1.416       .  A
C4959     Br4967   1.921       .  S
C4960      C4961   1.406       .  A
C4961      C4962   1.395       .  A
C4961      H4964   1.084       .  S
C4962     Br4968   1.919       .  S
C4969      C4970   1.414       .  A
C4969      C4974   1.407       .  A
C4970      C4971   1.399       .  A
C4970     Br4986   1.921       .  S
C4971      C4972   1.402       .  A
C4971      H4975   1.084       .  S
C4972      C4976   1.479   1_655  S
C4972      C4973   1.407       .  A
C4973      C4974   1.399       .  A
C4973     Br4985   1.920       .  S
C4974      H4977   1.082       .  S
C4976      C4978   1.403       .  A
C4976      C4982   1.408       .  A
C4978      C4979   1.401       .  A
C4978      H4983   1.083       .  S
C4979      C4980   1.415       .  A
C4979     Br4987   1.921       .  S
C4980      C4981   1.404       .  A
C4981      C4982   1.395       .  A
C4981      H4984   1.084       .  S
C4982     Br4988   1.921       .  S
C4989      C4990   1.412       .  A
C4989      C4994   1.405       .  A
C4990      C4991   1.398       .  A
C4990     Br5006   1.921       .  S
C4991      C4992   1.403       .  A
C4991      H4995   1.084       .  S
C4992      C4996   1.485       .  S
C4992      C4993   1.410       .  A
C4993      C4994   1.402       .  A
C4993     Br5005   1.919       .  S
C4994      H4997   1.083       .  S
C4996      C4998   1.402       .  A
C4996      C5002   1.409       .  A
C4998      C4999   1.400       .  A
C4998      H5003   1.084       .  S
C4999      C5000   1.417       .  A
C4999     Br5007   1.922       .  S
C5000      C5001   1.407       .  A
C5001      C5002   1.399       .  A
C5001      H5004   1.083       .  S
C5002     Br5008   1.919       .  S
C5009      C5010   1.418       .  A
C5009      C5014   1.407       .  A
C5010      C5011   1.401       .  A
C5010     Br5026   1.921       .  S
C5011      C5012   1.400       .  A
C5011      H5015   1.084       .  S
C5012      C5016   1.476       .  S
C5012      C5013   1.405       .  A
C5013      C5014   1.397       .  A
C5013     Br5025   1.920       .  S
C5014      H5017   1.084       .  S
C5016      C5018   1.400       .  A
C5016      C5022   1.406       .  A
C5018      C5019   1.400       .  A
C5018      H5023   1.084       .  S
C5019      C5020   1.416       .  A
C5019     Br5027   1.921       .  S
C5020      C5021   1.406       .  A
C5021      C5022   1.398       .  A
C5021      H5024   1.083       .  S
C5022     Br5028   1.918       .  S
C5029      C5030   1.417       .  A
C5029      C5034   1.408       .  A
C5030      C5031   1.402       .  A
C5030     Br5046   1.920       .  S
C5031      C5032   1.402       .  A
C5031      H5035   1.084       .  S
C5032      C5036   1.485       .  S
C5032      C5033   1.407       .  A
C5033      C5034   1.400       .  A
C5033     Br5045   1.919       .  S
C5034      H5037   1.083       .  S
C5036      C5038   1.404       .  A
C5036      C5042   1.410       .  A
C5038      C5039   1.404       .  A
C5038      H5043   1.084       .  S
C5039      C5040   1.413       .  A
C5039     Br5047   1.919       .  S
C5040      C5041   1.404       .  A
C5041      C5042   1.397       .  A
C5041      H5044   1.084       .  S
C5042     Br5048   1.920       .  S
C5049      C5050   1.418       .  A
C5049      C5054   1.408       .  A
C5050      C5051   1.402       .  A
C5050     Br5066   1.922       .  S
C5051      C5052   1.402       .  A
C5051      H5055   1.084       .  S
C5052      C5056   1.489       .  S
C5052      C5053   1.408       .  A
C5053      C5054   1.403       .  A
C5053     Br5065   1.919       .  S
C5054      H5057   1.083       .  S
C5056      C5058   1.404       .  A
C5056      C5062   1.411       .  A
C5058      C5059   1.400       .  A
C5058      H5063   1.084       .  S
C5059      C5060   1.412       .  A
C5059     Br5067   1.921       .  S
C5060      C5061   1.405       .  A
C5061      C5062   1.403       .  A
C5061      H5064   1.084       .  S
C5062     Br5068   1.918       .  S
C5069      C5070   1.414       .  A
C5069      C5074   1.407       .  A
C5070      C5071   1.400       .  A
C5070     Br5086   1.919       .  S
C5071      C5072   1.403       .  A
C5071      H5075   1.053       .  S
C5072      C5076   1.480       .  S
C5072      C5073   1.407       .  A
C5073      C5074   1.400       .  A
C5073     Br5085   1.920       .  S
C5074      H5077   1.094       .  S
C5076      C5078   1.401       .  A
C5076      C5082   1.409       .  A
C5078      C5079   1.398       .  A
C5078      H5083   1.092       .  S
C5079      C5080   1.413       .  A
C5079     Br5087   1.920       .  S
C5080      C5081   1.407       .  A
C5081      C5082   1.400       .  A
C5081      H5084   1.085       .  S
C5082     Br5088   1.920       .  S
