geometry optimzed in LAMMPS
_audit_creation_date              2020-11-30 
_audit_creation_method            'lammps2cif' 
_symmetry_space_group_name_H-M    'P1' 
_symmetry_Int_Tables_number       1 
_symmetry_cell_setting            triclinic 
loop_ 
_symmetry_equiv_pos_as_xyz 
  x,y,z 
_cell_length_a                    38.83479945153954 
_cell_length_b                    38.85644319758024 
_cell_length_c                    41.25904346191529 
_cell_angle_alpha                 89.97502226181392 
_cell_angle_beta                  90.03696057418715 
_cell_angle_gamma                 89.95480243952002 
loop_ 
_atom_site_label 
_atom_site_type_symbol 
_atom_site_fract_x 
_atom_site_fract_y 
_atom_site_fract_z 
_atom_site_charge 
Zr1        Zr  0.20300354  0.86655021  0.00417056     2.17510
O2          O  0.23324083  0.84367669  0.05127797    -0.50950
O3          O  0.25323792  0.87009625  0.97047476    -0.74160
O4          O  0.21335905  0.80622501  0.99382252    -0.80940
O5          O  0.21228698  0.96071431  0.02418488    -0.82690
O6          O  0.16184812  0.77920351  0.99494059    -0.78310
O7          O  0.24014194  0.90933804  0.02851283    -0.89950
O8          O  0.23638830  0.89276075  0.92222558    -0.75910
O9          O  0.17837920  0.84698956  0.95447659    -0.85400
O10         O  0.19514021  0.91713845  0.97271919    -0.85090
O11         O  0.15035897  0.83849768  0.01923505    -0.71850
O12         O  0.16732078  0.90374787  0.03580707    -0.83980
Zr13       Zr  0.07926555  0.90717194  0.97002979     2.26420
Zr14       Zr  0.12410309  0.82093740  0.96840695     2.06270
Zr15       Zr  0.15641643  0.95273293  0.00226955     2.10050
Zr16       Zr  0.17183025  0.89793270  0.92338800     1.78760
O17         O  0.15562032  0.98707679  0.05164034    -0.92790
O18         O  0.18266130  0.85613620  0.88059433    -0.40600
O19         O  0.13161406  0.93461875  0.95234671    -0.77230
O20         O  0.11659732  0.87198808  0.93672627    -0.95910
O21         O  0.08848530  0.85670078  0.00131218    -0.89220
O22         O  0.10504631  0.92514814  0.01917110    -0.92060
C23         C  0.25982057  0.88175859  0.94220313     1.01690
C24         C  0.23802101  0.94206815  0.03204693     1.14620
C25         C  0.19397395  0.78113582  0.00191010     1.05400
O26         O  0.14189559  0.79519748  0.91731607    -0.94220
O27         O  0.06406776  0.81514611  0.94764169    -0.89960
O28         O  0.03924353  0.86816751  0.94570506    -0.83100
C29         C  0.03873938  0.83571315  0.94115757     1.12040
O30         O  0.15188112  0.85657736  0.09523913    -0.96190
Zr31       Zr  0.11543119  0.87525669  0.05037060     1.88940
O32         O  0.03212301  0.89850905  0.00918423    -0.72840
O33         O  0.09410310  0.76705599  0.97922273    -0.52100
O34         O  0.09347931  0.82113803  0.07188662    -0.96780
O35         O  0.11069760  0.91461542  0.09624756    -0.54000
O36         O  0.05523973  0.88330078  0.05786266    -0.73350
C37         C  0.02993339  0.89019843  0.03937463     0.98990
O38         O  0.04891114  0.93313104  0.92436247    -0.62180
O39         O  0.17746342  0.99998712  0.96891980    -0.56980
O40         O  0.06319763  0.96608466  0.98180453    -0.93660
O41         O  0.11065512  0.99430133  0.00028129    -0.92090
O42         O  0.19030267  0.95337175  0.90205827    -0.92440
O43         O  0.14354589  0.91287375  0.87258559    -0.91230
C44         C  0.07870593  0.99252893  0.99322564     1.17830
H45         H  0.21638182  0.92939582  0.96900371     0.33770
H46         H  0.10486757  0.86625057  0.91679228     0.44630
H47         H  0.09037511  0.94021421  0.03159970     0.38150
H48         H  0.15481788  0.82012217  0.03438264     0.34630
H49         H  0.19855869  0.86799549  0.86552335     0.26420
H50         H  0.10831457  0.74889144  0.96899945     0.32360
H51         H  0.07975090  0.82769795  0.09113784     0.38270
H52         H  0.20875168  0.94774533  0.88637286     0.32730
H53         H  0.18106129  0.01918260  0.98432688     0.31600
H54         H  0.16393438  0.01009805  0.04497064     0.33290
H55         H  0.09385510  0.90365052  0.11100002     0.32250
H56         H  0.12141610  0.92339131  0.87923320     0.36250
H57         H  0.06180021  0.95449922  0.91951515     0.28980
H58         H  0.25277376  0.83031323  0.04235101     0.33220
H59         H  0.13615924  0.85257160  0.11373752     0.36070
H60         H  0.20099736  0.99301538  0.96244634     0.28680
H61         H  0.05404376  0.91796273  0.90569491     0.41550
H62         H  0.16193592  0.78064112  0.92304883     0.31600
H63         H  0.19702254  0.83813518  0.89090682     0.39220
H64         H  0.09861835  0.93521768  0.08788151     0.31070
H65         H  0.09650679  0.76321285  0.00284540     0.31140
H66         H  0.21752124  0.82620048  0.06051616     0.31400
Zr67       Zr  0.33513274  0.37145937  0.76327178     2.17510
O68         O  0.30280168  0.35781484  0.71423618    -0.50950
O69         O  0.28579745  0.36937646  0.79818789    -0.74160
O70         O  0.32387621  0.31087380  0.75947181    -0.80940
O71         O  0.32620172  0.46728352  0.74713386    -0.82690
O72         O  0.37367280  0.28170903  0.76990768    -0.78310
O73         O  0.29780177  0.41617186  0.74343694    -0.89950
O74         O  0.30186961  0.39300933  0.84616656    -0.75910
O75         O  0.35894032  0.34844748  0.81191489    -0.85400
O76         O  0.34329588  0.42016247  0.79703705    -0.85090
O77         O  0.38716159  0.34329404  0.74680258    -0.71850
O78         O  0.37085221  0.40971342  0.73302428    -0.83980
Zr79       Zr  0.45904051  0.40788280  0.79870267     2.26420
Zr80       Zr  0.41282721  0.32247506  0.79648951     2.06270
Zr81       Zr  0.38222015  0.45668693  0.76872104     2.10050
Zr82       Zr  0.36645546  0.39772507  0.84521782     1.78760
O83         O  0.38556821  0.49094824  0.71938000    -0.92790
O84         O  0.35552167  0.35405942  0.88631811    -0.40600
O85         O  0.40700645  0.43521500  0.81762678    -0.77230
O86         O  0.42118995  0.37167857  0.83044249    -0.95910
O87         O  0.44891562  0.35937149  0.76517195    -0.89220
O88         O  0.43332681  0.42911106  0.75062409    -0.92060
C89         C  0.27879298  0.38113527  0.82630985     1.01690
C90         C  0.30010135  0.44879700  0.73991098     1.14620
C91         C  0.34281275  0.28397947  0.75874640     1.05400
O92         O  0.39566831  0.29338374  0.84617440    -0.94220
O93         O  0.47211066  0.31472404  0.81870838    -0.89960
O94         O  0.49782227  0.36719180  0.82245597    -0.83100
C95         C  0.49763647  0.33461638  0.82622940     1.12040
O96         O  0.38484084  0.36678280  0.67168209    -0.96190
Zr97       Zr  0.42239008  0.38118217  0.71709921     1.88940
O98         O  0.50626603  0.39827993  0.75956220    -0.72840
O99         O  0.44306192  0.27030850  0.78014212    -0.52100
O100        O  0.44220566  0.32790091  0.69215939    -0.96780
O101        O  0.42929084  0.42321562  0.67357835    -0.54000
O102        O  0.48302526  0.38677082  0.71008104    -0.73350
C103        C  0.50847546  0.39127266  0.72905264     0.98990
O104        O  0.48999182  0.43195302  0.84490498    -0.62180
O105        O  0.36193417  0.50429127  0.80204385    -0.56980
O106        O  0.47616234  0.46672858  0.78838494    -0.93660
O107        O  0.42849169  0.49718684  0.77369692    -0.92090
O108        O  0.34877147  0.45220980  0.86918712    -0.92440
O109        O  0.39510020  0.40980548  0.89650248    -0.91230
C110        C  0.46071170  0.49412146  0.77900179     1.17830
H111        H  0.32213231  0.43232040  0.80147708     0.33770
H112        H  0.43282252  0.36472082  0.85008897     0.44630
H113        H  0.44816504  0.44449674  0.73875716     0.38150
H114        H  0.38259908  0.32544885  0.73116798     0.34630
H115        H  0.33953518  0.36523612  0.90177094     0.26420
H116        H  0.43009877  0.25111158  0.79014226     0.32360
H117        H  0.45595558  0.33527140  0.67318468     0.38270
H118        H  0.33002648  0.44605754  0.88437337     0.32730
H119        H  0.35638767  0.52279434  0.78636981     0.31600
H120        H  0.37916772  0.51454925  0.72612973     0.33290
H121        H  0.44417839  0.41164722  0.65743155     0.32250
H122        H  0.41749248  0.41999006  0.89022320     0.36250
H123        H  0.47757412  0.45347801  0.85025739     0.28980
H124        H  0.28211349  0.34518165  0.72165289     0.33220
H125        H  0.40018808  0.36364117  0.65276195     0.36070
H126        H  0.33927496  0.49667224  0.81034172     0.28680
H127        H  0.48456687  0.41642806  0.86324309     0.41550
H128        H  0.37428623  0.28096516  0.84035693     0.31600
H129        H  0.34124480  0.33652706  0.87526290     0.39220
H130        H  0.44391178  0.44175037  0.68255667     0.31070
H131        H  0.43880070  0.26811933  0.75656675     0.31140
H132        H  0.31683707  0.34050223  0.70259303     0.31400
Zr133      Zr  0.65129002  0.68918252  0.74353059     2.17510
O134        O  0.67076565  0.72727549  0.78679627    -0.50950
O135        O  0.64619147  0.73552075  0.70421466    -0.74160
O136        O  0.71258936  0.69984050  0.73926700    -0.80940
O137        O  0.55662758  0.69769109  0.76455063    -0.82690
O138        O  0.73981467  0.64811976  0.74095286    -0.78310
O139        O  0.60777879  0.72606782  0.76711507    -0.89950
O140        O  0.62751403  0.71132883  0.65732233    -0.75910
O141        O  0.67203389  0.65997396  0.69647736    -0.85400
O142        O  0.60124262  0.67698803  0.71258710    -0.85090
O143        O  0.67961988  0.63838102  0.76367000    -0.71850
O144        O  0.61527898  0.65505069  0.77806247    -0.83980
Zr145      Zr  0.61345393  0.56141669  0.71985933     2.26420
Zr146      Zr  0.69914912  0.60797671  0.71570712     2.06270
Zr147      Zr  0.56637892  0.64076516  0.74558661     2.10050
Zr148      Zr  0.62143199  0.64836913  0.66592195     1.78760
O149        O  0.53105539  0.64394614  0.79427725    -0.92790
O150        O  0.66271171  0.65298848  0.62170904    -0.40600
O151        O  0.58483589  0.61122992  0.69806613    -0.77230
O152        O  0.64874988  0.59589738  0.68426495    -0.95910
O153        O  0.66366359  0.57410978  0.75055230    -0.89220
O154        O  0.59477127  0.59139539  0.76661962    -0.92060
C155        C  0.63630982  0.73765344  0.67459558     1.01690
C156        C  0.57517437  0.72376808  0.77144542     1.14620
C157        C  0.73784447  0.68045410  0.74728682     1.05400
O158        O  0.72745665  0.62306260  0.66504858    -0.94220
O159        O  0.70582681  0.54726795  0.69680787    -0.89960
O160        O  0.65344976  0.52094129  0.69761680    -0.83100
C161        C  0.68576385  0.52110995  0.69206376     1.12040
O162        O  0.66052490  0.64398848  0.84058861    -0.96190
Zr163      Zr  0.64413778  0.60461239  0.79720859     1.88940
O164        O  0.62305607  0.51732654  0.76137615    -0.72840
O165        O  0.75213329  0.57865928  0.73133491    -0.52100
O166        O  0.69957886  0.58703531  0.81946960    -0.96780
O167        O  0.60456681  0.60145928  0.84308534    -0.54000
O168        O  0.63859925  0.54412570  0.80819761    -0.73350
C169        C  0.63186723  0.51734743  0.79143904     0.98990
O170        O  0.58721689  0.52717999  0.67692295    -0.62180
O171        O  0.51944723  0.65784949  0.70982396    -0.56980
O172        O  0.55515262  0.54550517  0.73443366    -0.93660
O173        O  0.52607964  0.59414213  0.74864760    -0.92090
O174        O  0.56607836  0.66549769  0.64327768    -0.92440
O175        O  0.60554736  0.61449793  0.61856986    -0.91230
C176        C  0.52864438  0.56164535  0.74501954     1.17830
H177        H  0.58862327  0.69754906  0.70691074     0.33770
H178        H  0.65503348  0.58258147  0.66540480     0.44630
H179        H  0.58013673  0.57774802  0.78041794     0.38150
H180        H  0.69726885  0.64455615  0.77901836     0.34630
H181        H  0.65102693  0.66744685  0.60526293     0.26420
H182        H  0.77092083  0.59180266  0.72086421     0.32360
H183        H  0.69386372  0.57313772  0.83885388     0.38270
H184        H  0.57190893  0.68085931  0.62493439     0.32730
H185        H  0.49924207  0.66016797  0.72428602     0.31600
H186        H  0.50788164  0.65076468  0.78656243     0.33290
H187        H  0.61620048  0.58628082  0.85897421     0.32250
H188        H  0.59505402  0.59335637  0.62761011     0.36250
H189        H  0.56547124  0.53927040  0.67163340     0.28980
H190        H  0.68334990  0.74616169  0.77588031     0.33220
H191        H  0.66603414  0.62932655  0.85953015     0.36070
H192        H  0.52495630  0.68175471  0.70335354     0.28680
H193        H  0.60191288  0.53112169  0.65767218     0.41550
H194        H  0.74072883  0.64412520  0.67015375     0.31600
H195        H  0.68130507  0.66784478  0.63027538     0.39220
H196        H  0.58458989  0.58786144  0.83553032     0.31070
H197        H  0.75477717  0.58318286  0.75482341     0.31140
H198        H  0.68863917  0.71414906  0.79865842     0.31400
Zr199      Zr  0.83082377  0.13393299  0.49253558     2.17510
O200        O  0.79243933  0.15336109  0.53560684    -0.50950
O201        O  0.78477605  0.12878956  0.45317038    -0.74160
O202        O  0.81985082  0.19516100  0.48832716    -0.80940
O203        O  0.82276141  0.03935878  0.51410712    -0.82690
O204        O  0.87147307  0.22268447  0.48925688    -0.78310
O205        O  0.79402744  0.09038241  0.51608153    -0.89950
O206        O  0.80912321  0.10989570  0.40643787    -0.75910
O207        O  0.86018046  0.15469219  0.44559228    -0.85400
O208        O  0.84340001  0.08389263  0.46175043    -0.85090
O209        O  0.88129041  0.16248173  0.51284080    -0.71850
O210        O  0.86460663  0.09783185  0.52728281    -0.83980
Zr211      Zr  0.95897109  0.09664168  0.46991227     2.26420
Zr212      Zr  0.91199291  0.18188271  0.46502654     2.06270
Zr213      Zr  0.87961308  0.04910547  0.49494167     2.10050
Zr214      Zr  0.87217819  0.10413737  0.41521568     1.78760
O215        O  0.87766913  0.01429860  0.54403293    -0.92790
O216        O  0.86755951  0.14548933  0.37103032    -0.40600
O217        O  0.90942249  0.06791790  0.44771758    -0.77230
O218        O  0.92449318  0.13150299  0.43385314    -0.95910
O219        O  0.94556829  0.14666197  0.50044904    -0.89220
O220        O  0.92871989  0.07754176  0.51635278    -0.92060
C221        C  0.78273416  0.11872214  0.42364586     1.01690
C222        C  0.79655889  0.05786251  0.52078414     1.14620
C223        C  0.83914542  0.22071192  0.49558043     1.05960
O224        O  0.89722189  0.21053353  0.41441358    -0.94220
O225        O  0.97236651  0.18878714  0.44550773    -0.89960
O226        O  0.99928193  0.13674652  0.44766359    -0.83100
C227        C  0.99873158  0.16886402  0.44127044     1.12040
O228        O  0.87429533  0.14324657  0.58944190    -0.96190
Zr229      Zr  0.91457788  0.12688475  0.54678739     1.88940
O230        O  0.00227504  0.10656262  0.51232853    -0.72840
O231        O  0.94150779  0.23427702  0.48178672    -0.52100
O232        O  0.93173525  0.18214507  0.56956308    -0.96780
O233        O  0.91721873  0.08713241  0.59257094    -0.54000
O234        O  0.97462776  0.12157076  0.55886252    -0.73350
C235        C  0.00168937  0.11521863  0.54245275     0.98990
O236        O  0.99424485  0.07100044  0.42735446    -0.62180
O237        O  0.86178310  0.00197455  0.45983568    -0.56980
O238        O  0.97485143  0.03809223  0.48327733    -0.93660
O239        O  0.92621104  0.00855679  0.49649276    -0.92090
O240        O  0.85561889  0.04868767  0.39257916    -0.92440
O241        O  0.90628684  0.08841339  0.36796525    -0.91230
C242        C  0.95871180  0.01117453  0.49277910     1.17830
H243        H  0.82290056  0.07122632  0.45602242     0.33770
H244        H  0.93790587  0.13774353  0.41504127     0.44630
H245        H  0.94240115  0.06270456  0.52998683     0.38150
H246        H  0.87494859  0.18030122  0.52793675     0.34630
H247        H  0.85319277  0.13381813  0.35452599     0.26420
H248        H  0.92893794  0.25331091  0.47104387     0.32360
H249        H  0.94497134  0.17632652  0.58934429     0.38270
H250        H  0.84007749  0.05439274  0.37431395     0.32730
H251        H  0.85875472  0.98214371  0.47463833     0.31600
H252        H  0.87057102  0.99110382  0.53669174     0.33290
H253        H  0.93186190  0.09885534  0.60882124     0.32250
H254        H  0.92774271  0.07857940  0.37707553     0.36250
H255        H  0.98245000  0.04923606  0.42167456     0.28980
H256        H  0.77343151  0.16570339  0.52457714     0.33220
H257        H  0.88855216  0.14836080  0.60874823     0.36070
H258        H  0.83810518  0.00797693  0.45294803     0.28680
H259        H  0.99055546  0.08579849  0.40811321     0.41550
H260        H  0.87564877  0.22313069  0.41922117     0.31600
H261        H  0.85259768  0.16402396  0.37956299     0.39220
H262        H  0.93129349  0.06740117  0.58520133     0.31070
H263        H  0.93623961  0.23682092  0.50514387     0.31140
H264        H  0.80536336  0.17141085  0.54738208     0.31400
Zr265      Zr  0.38250027  0.31801337  0.25411072     2.17510
O266        O  0.35867081  0.28805225  0.30089303    -0.50950
O267        O  0.38691628  0.26768949  0.22073623    -0.74160
O268        O  0.32256103  0.30756312  0.24191379    -0.80940
O269        O  0.47655413  0.30898264  0.27503991    -0.82690
O270        O  0.29502823  0.35880109  0.24304840    -0.78310
O271        O  0.42525859  0.28095329  0.27884701    -0.89950
O272        O  0.40972599  0.28455068  0.17257804    -0.75910
O273        O  0.36346503  0.34257082  0.20418540    -0.85400
O274        O  0.43342851  0.32594538  0.22321748    -0.85090
O275        O  0.35396044  0.37056802  0.26870030    -0.71850
O276        O  0.41915814  0.35377638  0.28617632    -0.83980
Zr277      Zr  0.42301325  0.44180993  0.22042710     2.26420
Zr278      Zr  0.33704621  0.39680164  0.21764591     2.06270
Zr279      Zr  0.46846841  0.36477284  0.25314420     2.10050
Zr280      Zr  0.41471841  0.34912449  0.17365865     1.78760
O281        O  0.50219084  0.36595486  0.30293061    -0.92790
O282        O  0.37322293  0.33820848  0.13057489    -0.40600
O283        O  0.45082477  0.38950918  0.20303901    -0.77230
O284        O  0.38851172  0.40433026  0.18666269    -0.95910
O285        O  0.37216203  0.43251517  0.25107869    -0.89220
O286        O  0.44051275  0.41606130  0.26974493    -0.92060
C287        C  0.39877655  0.26111494  0.19254866     1.01690
C288        C  0.45797388  0.28317962  0.28267292     1.14620
C289        C  0.29713568  0.32666001  0.24973488     1.05400
O290        O  0.31132350  0.37905128  0.16651377    -0.94220
O291        O  0.33129292  0.45618954  0.19556172    -0.89960
O292        O  0.38410228  0.48150101  0.19534476    -0.83100
C293        C  0.35183865  0.48160427  0.18957163     1.12040
O294        O  0.37106678  0.36903977  0.34492934    -0.96190
Zr295      Zr  0.39021500  0.40555523  0.30034268     1.88940
O296        O  0.41412264  0.48882805  0.25973555    -0.72840
O297        O  0.28353893  0.42724275  0.22922000    -0.52100
O298        O  0.33577380  0.42745218  0.32125834    -0.96780
O299        O  0.42903606  0.41024105  0.34668303    -0.54000
O300        O  0.39823126  0.46564658  0.30815883    -0.73350
C301        C  0.40550236  0.49096178  0.28985799     0.98990
O302        O  0.44931167  0.47242008  0.17512820    -0.62180
O303        O  0.51622246  0.34372146  0.22040367    -0.56980
O304        O  0.48186886  0.45775703  0.23250741    -0.93660
O305        O  0.51006448  0.41031965  0.25112469    -0.92090
O306        O  0.47049459  0.33082847  0.15291168    -0.92440
O307        O  0.43003814  0.37723436  0.12291019    -0.91230
C308        C  0.50830195  0.44221211  0.24397878     1.17830
H309        H  0.44584161  0.30475668  0.21965059     0.33770
H310        H  0.38301866  0.41600262  0.16663350     0.44630
H311        H  0.45546186  0.43074095  0.28228898     0.38150
H312        H  0.33524923  0.36603333  0.28344680     0.34630
H313        H  0.38521839  0.32228011  0.11562429     0.26420
H314        H  0.26519360  0.41360524  0.21860269     0.32360
H315        H  0.34208249  0.44113258  0.34061325     0.38270
H316        H  0.46513186  0.31220444  0.13733818     0.32730
H317        H  0.53519615  0.34002730  0.23606844     0.31600
H318        H  0.52532637  0.35761373  0.29659503     0.33290
H319        H  0.41782546  0.42699267  0.36136805     0.32250
H320        H  0.44020830  0.39949798  0.12957929     0.36250
H321        H  0.47085274  0.45969538  0.17048881     0.28980
H322        H  0.34544956  0.26854467  0.29176698     0.33220
H323        H  0.36681362  0.38471787  0.36340945     0.36070
H324        H  0.50932994  0.32024046  0.21375035     0.28680
H325        H  0.43441954  0.46724302  0.15625923     0.41550
H326        H  0.29740024  0.35854604  0.17207231     0.31600
H327        H  0.35515122  0.32388621  0.14077498     0.39220
H328        H  0.44969151  0.42239802  0.33858378     0.31070
H329        H  0.27966144  0.42416607  0.25276347     0.31140
H330        H  0.34101989  0.30385051  0.30974016     0.31400
Zr331      Zr  0.43606842  0.88590819  0.92870617     2.17510
O332        O  0.41080866  0.89093697  0.98273321    -0.50950
O333        O  0.37194475  0.88932044  0.92291476    -0.74160
O334        O  0.44922044  0.94080480  0.95532395    -0.80940
O335        O  0.45386156  0.78788198  0.93516555    -0.82690
O336        O  0.47748485  0.97729370  0.92113248    -0.78310
O337        O  0.44250756  0.83583671  0.96489881    -0.89950
O338        O  0.35727660  0.89214495  0.86979648    -0.75910
O339        O  0.42696562  0.92033932  0.88140953    -0.85400
O340        O  0.41773853  0.84610565  0.88835970    -0.85090
O341        O  0.49163488  0.91098576  0.91542053    -0.71850
O342        O  0.48300533  0.84601274  0.92166535    -0.83980
Zr343      Zr  0.50959055  0.86655138  0.82180756     2.26420
Zr344      Zr  0.48181523  0.94644419  0.86828950     2.06270
Zr345      Zr  0.46458667  0.80681318  0.88069271     2.10050
Zr346      Zr  0.40957627  0.87981385  0.84080469     1.78760
O347        O  0.49399359  0.75472356  0.89851189    -0.92790
O348        O  0.38484326  0.92960242  0.81340661    -0.40600
O349        O  0.45533948  0.83922708  0.83238627    -0.77230
O350        O  0.46284528  0.90649018  0.82760702    -0.95910
O351        O  0.52853272  0.90642359  0.86160514    -0.89220
O352        O  0.51885549  0.83236317  0.86849985    -0.92060
C353        C  0.34945747  0.89212032  0.89982245     1.01690
C354        C  0.44787605  0.80325808  0.96188898     1.14620
C355        C  0.46531327  0.96901358  0.94930386     1.05400
O356        O  0.44061011  0.99179485  0.85567914    -0.94220
O357        O  0.49926051  0.96220727  0.81159759    -0.89960
O358        O  0.52465836  0.91488300  0.78926914    -0.83100
C359        C  0.51448057  0.94603401  0.78806592     1.12040
O360        O  0.54666576  0.87918938  0.96633808    -0.96190
Zr361      Zr  0.53750795  0.87150985  0.90827635     1.88940
O362        O  0.57245783  0.86024531  0.82240479    -0.72840
O363        O  0.52864764  0.98801194  0.87052277    -0.52100
O364        O  0.57547591  0.92029573  0.91824339    -0.96780
O365        O  0.56292500  0.82144399  0.93475762    -0.54000
O366        O  0.58814660  0.85903356  0.87544067    -0.73350
C367        C  0.59496235  0.85698073  0.84507866     0.98990
O368        O  0.50004794  0.85811078  0.76376801    -0.62180
O369        O  0.41358036  0.77308005  0.86766185    -0.56980
O370        O  0.51996550  0.80878000  0.80534407    -0.93660
O371        O  0.48918180  0.77261355  0.83752887    -0.92090
O372        O  0.37190017  0.83101279  0.83013246    -0.92440
O373        O  0.39975607  0.87144932  0.78303577    -0.91230
C374        C  0.51006786  0.77894566  0.81429175     1.17830
H375        H  0.39703111  0.83413872  0.89474634     0.33770
H376        H  0.45806032  0.91753587  0.80716382     0.44630
H377        H  0.53629489  0.81498386  0.86523907     0.38150
H378        H  0.50217493  0.92296713  0.93320642     0.34630
H379        H  0.36017643  0.92391804  0.81052852     0.26420
H380        H  0.51722017  0.01044294  0.87429812     0.32360
H381        H  0.59885500  0.91023753  0.91977056     0.38270
H382        H  0.34950391  0.84134950  0.82401782     0.32730
H383        H  0.42267854  0.75100824  0.85926894     0.31600
H384        H  0.47732629  0.73588144  0.89469251     0.33290
H385        H  0.58811773  0.82463005  0.93263282     0.32250
H386        H  0.42290518  0.86702445  0.77392440     0.36250
H387        H  0.48477154  0.83779997  0.76206205     0.28980
H388        H  0.39645906  0.91201692  0.98229781     0.33220
H389        H  0.57193847  0.87884375  0.96953340     0.36070
H390        H  0.40346254  0.76711100  0.88895566     0.28680
H391        H  0.48515570  0.87744781  0.75680605     0.41550
H392        H  0.42505786  0.99264493  0.87466963     0.31600
H393        H  0.38500927  0.94807706  0.82992086     0.39220
H394        H  0.55754315  0.80179145  0.92037145     0.31070
H395        H  0.54080016  0.98291596  0.89107725     0.31140
H396        H  0.43009677  0.89638860  0.99758465     0.31400
Zr397      Zr  0.85725152  0.84552054  0.92602584     2.17510
O398        O  0.84248922  0.86561563  0.98009182    -0.50950
O399        O  0.91899419  0.83325183  0.92829151    -0.74160
O400        O  0.85815229  0.79422356  0.96016179    -0.80940
O401        O  0.86147406  0.93762134  0.89875806    -0.82690
O402        O  0.81484490  0.75864449  0.94618615    -0.78310
O403        O  0.88162644  0.90126503  0.93792669    -0.89950
O404        O  0.93518957  0.81764965  0.87736019    -0.75910
O405        O  0.86575473  0.79659960  0.89220711    -0.85400
O406        O  0.87622108  0.86846689  0.87561452    -0.85090
O407        O  0.80177376  0.81889595  0.92138909    -0.71850
O408        O  0.81250469  0.88380227  0.90773153    -0.83980
Zr409      Zr  0.78338462  0.82829024  0.82013864     2.26420
Zr410      Zr  0.81070198  0.76878837  0.88793610     2.06270
Zr411      Zr  0.83116527  0.90514738  0.85639429     2.10050
Zr412      Zr  0.88447653  0.82003095  0.84197119     1.78760
O413        O  0.80679167  0.96200041  0.86588892    -0.92790
O414        O  0.90812494  0.76272237  0.83301150    -0.40600
O415        O  0.83884769  0.85642391  0.82160435    -0.77230
O416        O  0.83008573  0.79184678  0.83726338    -0.95910
O417        O  0.76461285  0.80583593  0.87057117    -0.89220
O418        O  0.77629921  0.87731512  0.85394779    -0.92060
C419        C  0.94162143  0.82354800  0.90742748     1.01690
C420        C  0.87795448  0.93111299  0.92519743     1.14620
C421        C  0.83189613  0.77579796  0.96733119     1.05400
O422        O  0.85098805  0.72082999  0.89119429    -0.94220
O423        O  0.79241826  0.73323908  0.84185169    -0.89960
O424        O  0.77064874  0.76998391  0.80391989    -0.83100
C425        C  0.77858719  0.73991452  0.81417487     1.12040
O426        O  0.75370668  0.87207759  0.96098551    -0.96190
Zr427      Zr  0.75765815  0.85572085  0.90400782     1.88940
O428        O  0.71983804  0.83301003  0.82198864    -0.72840
O429        O  0.76264064  0.73211612  0.90350668    -0.52100
O430        O  0.71990720  0.81630625  0.93310869    -0.96780
O431        O  0.73157895  0.91240087  0.91090235    -0.54000
O432        O  0.70597818  0.85407131  0.87169686    -0.73350
C433        C  0.69803540  0.84419746  0.84312199     0.98990
O434        O  0.79059174  0.81740910  0.76215528    -0.62180
O435        O  0.87659627  0.92797547  0.82189396    -0.56980
O436        O  0.77144815  0.87783383  0.78752431    -0.93660
O437        O  0.79799227  0.92485725  0.80921520    -0.92090
O438        O  0.92463246  0.85995636  0.81670319    -0.92440
O439        O  0.89462799  0.80653297  0.78513560    -0.91230
C440        C  0.77818930  0.90995887  0.78849038     1.17830
H441        H  0.89758729  0.88094767  0.87790559     0.33770
H442        H  0.83434207  0.77407411  0.82146434     0.44630
H443        H  0.75846090  0.89254311  0.84624030     0.38150
H444        H  0.79210430  0.81415574  0.94233551     0.34630
H445        H  0.93304138  0.76649000  0.82937319     0.26420
H446        H  0.77336773  0.71218443  0.91456714     0.32360
H447        H  0.69705253  0.82762054  0.93296865     0.38270
H448        H  0.94688389  0.84750104  0.81632283     0.32730
H449        H  0.86797212  0.95074824  0.81479420     0.31600
H450        H  0.82167087  0.97789750  0.85342792     0.33290
H451        H  0.70676830  0.90783620  0.91435733     0.32250
H452        H  0.87144036  0.80665749  0.77515150     0.36250
H453        H  0.80521016  0.83640321  0.75402049     0.28980
H454        H  0.82064301  0.85378455  0.98515723     0.33220
H455        H  0.72885020  0.87500916  0.96554632     0.36070
H456        H  0.89571712  0.93334088  0.83694465     0.28680
H457        H  0.80585409  0.79704613  0.76062905     0.41550
H458        H  0.86705347  0.72703865  0.90889327     0.31600
H459        H  0.90688765  0.75132557  0.85444271     0.39220
H460        H  0.73269428  0.92351332  0.88934602     0.31070
H461        H  0.75073401  0.74492662  0.92096173     0.31140
H462        H  0.83541304  0.88995514  0.97761092     0.31400
Zr463      Zr  0.63565085  0.92695573  0.68384716     2.17510
O464        O  0.63089684  0.90855052  0.74033554    -0.50950
O465        O  0.63360018  0.86324899  0.68375079    -0.74160
O466        O  0.57982038  0.93933599  0.70829676    -0.80940
O467        O  0.73383616  0.94196787  0.68870322    -0.82690
O468        O  0.54279671  0.96376907  0.67200968    -0.78310
O469        O  0.68579523  0.93478325  0.71945082    -0.89950
O470        O  0.63739103  0.84188814  0.63278427    -0.75910
O471        O  0.60148997  0.91341171  0.63731453    -0.85400
O472        O  0.67577570  0.90554631  0.64523067    -0.85090
O473        O  0.60904923  0.98052376  0.66685072    -0.71850
O474        O  0.67542336  0.97317057  0.67424392    -0.83980
Zr475      Zr  0.65483578  0.99204163  0.57283569     2.26420
Zr476      Zr  0.57474662  0.96663896  0.61975735     2.06270
Zr477      Zr  0.71457908  0.95189253  0.63431444     2.10050
Zr478      Zr  0.64232002  0.89271165  0.59851358     1.78760
O479        O  0.76645626  0.98195711  0.65159239    -0.92790
O480        O  0.59145246  0.86270962  0.57861890    -0.40600
O481        O  0.68223941  0.93855835  0.58690303    -0.77230
O482        O  0.61546829  0.94505699  0.58111716    -0.95910
O483        O  0.61430987  0.01320282  0.61097957    -0.89220
O484        O  0.68832199  0.00493207  0.61915726    -0.92060
C485        C  0.63497835  0.83793620  0.66354909     1.01690
C486        C  0.71853373  0.93822471  0.71579986     1.14620
C487        C  0.55101534  0.95349822  0.70085191     1.05400
O488        O  0.53086355  0.92387576  0.60737228    -0.94220
O489        O  0.55945351  0.98223861  0.56222799    -0.89960
O490        O  0.60735028  0.00496662  0.53856122    -0.83100
C491        C  0.57585376  0.99595586  0.53797605     1.12040
O492        O  0.63985156  0.03718014  0.71507661    -0.96190
Zr493      Zr  0.64847372  0.02577895  0.65749754     1.88940
O494        O  0.66069528  0.05529572  0.57033714    -0.72840
O495        O  0.53191157  0.01244472  0.61982860    -0.52100
O496        O  0.59941222  0.06419111  0.66461134    -0.96780
O497        O  0.69750215  0.05420389  0.68289952    -0.54000
O498        O  0.66078523  0.07425800  0.62242131    -0.73350
C499        C  0.66330101  0.07923103  0.59183861     0.98990
O500        O  0.66361037  0.97793055  0.51569494    -0.62180
O501        O  0.74836199  0.90068392  0.62202934    -0.56980
O502        O  0.71244734  0.00224942  0.55592740    -0.93660
O503        O  0.74893072  0.97491757  0.59051931    -0.92090
O504        O  0.69212665  0.85724176  0.58535907    -0.92440
O505        O  0.64530899  0.87923970  0.54093222    -0.91230
C506        C  0.74239995  0.99386296  0.56588922     1.17830
H507        H  0.68819219  0.88574107  0.65323852     0.33770
H508        H  0.60441137  0.93917903  0.56092259     0.44630
H509        H  0.70549739  0.02232953  0.61499172     0.38150
H510        H  0.59617067  0.99177737  0.68369174     0.34630
H511        H  0.59896516  0.83854798  0.57569573     0.26420
H512        H  0.50972023  0.00064918  0.62381100     0.32360
H513        H  0.60950175  0.08753325  0.66608418     0.38270
H514        H  0.68271321  0.83383328  0.58201276     0.32730
H515        H  0.77036412  0.90961045  0.61332209     0.31600
H516        H  0.78544574  0.96536828  0.64800537     0.33290
H517        H  0.69275432  0.07914139  0.68072546     0.32250
H518        H  0.65892083  0.89825217  0.53140943     0.36250
H519        H  0.68456853  0.96341790  0.51506552     0.28980
H520        H  0.61079793  0.89291112  0.74136263     0.33220
H521        H  0.63928163  0.06255029  0.71726560     0.36070
H522        H  0.75451948  0.89098410  0.64345983     0.28680
H523        H  0.64490739  0.96166754  0.51009876     0.41550
H524        H  0.52922075  0.90956143  0.62716995     0.31600
H525        H  0.57558271  0.86192482  0.59737229     0.39220
H526        H  0.71712325  0.04991714  0.66813956     0.31070
H527        H  0.53645679  0.02556760  0.63994549     0.31140
H528        H  0.62399046  0.92919356  0.75283062     0.31400
Zr529      Zr  0.67710666  0.33920838  0.67666045     2.17510
O530        O  0.66003843  0.32227149  0.73115153    -0.50950
O531        O  0.68903051  0.40100437  0.67954852    -0.74160
O532        O  0.73051272  0.34118443  0.70736815    -0.80940
O533        O  0.58479662  0.34449826  0.65255158    -0.82690
O534        O  0.76429072  0.29640992  0.69500468    -0.78310
O535        O  0.62274600  0.36485296  0.69022513    -0.89950
O536        O  0.70367121  0.41792639  0.62856423    -0.75910
O537        O  0.72525404  0.34804623  0.64202107    -0.85400
O538        O  0.65291337  0.35906476  0.62703528    -0.85090
O539        O  0.70336467  0.28358979  0.67080141    -0.71850
O540        O  0.63828032  0.29476517  0.65861454    -0.83980
Zr541      Zr  0.69182010  0.26758381  0.56944772     2.26420
Zr542      Zr  0.75293833  0.29299102  0.63677051     2.06270
Zr543      Zr  0.61547124  0.31458469  0.60815005     2.10050
Zr544      Zr  0.70065195  0.36781107  0.59259562     1.78760
O545        O  0.55803651  0.29173944  0.61783306    -0.92790
O546        O  0.75773741  0.39162112  0.58284108    -0.40600
O547        O  0.66344978  0.32286898  0.57240743    -0.77230
O548        O  0.72888409  0.31355917  0.58679906    -0.95910
O549        O  0.71540759  0.24748324  0.61902696    -0.89220
O550        O  0.64348413  0.25981566  0.60407606    -0.92060
C551        C  0.69828946  0.42394039  0.65878456     1.01690
C552        C  0.59242665  0.36112740  0.67873429     1.14620
C553        C  0.74726270  0.31427001  0.71561468     1.05400
O554        O  0.80105563  0.33304996  0.63964665    -0.94220
O555        O  0.78742726  0.27529497  0.58988358    -0.89960
O556        O  0.74978395  0.25494584  0.55205061    -0.83100
C557        C  0.78011168  0.26223771  0.56205271     1.12040
O558        O  0.65060752  0.23345167  0.71013199    -0.96190
Zr559      Zr  0.66618937  0.23981596  0.65316148     1.88940
O560        O  0.68699351  0.20413362  0.56952546    -0.72840
O561        O  0.78976193  0.24458147  0.65119524    -0.52100
O562        O  0.70643703  0.20156043  0.68073801    -0.96780
O563        O  0.60956002  0.21374743  0.66046677    -0.54000
O564        O  0.66709542  0.18898858  0.61931603    -0.73350
C565        C  0.67621845  0.18178273  0.59030438     0.98990
O566        O  0.70136399  0.27648033  0.51147375    -0.62180
O567        O  0.59254145  0.36075562  0.57452128    -0.56980
O568        O  0.64177353  0.25605091  0.53753225    -0.93660
O569        O  0.59488724  0.28102924  0.56118551    -0.92090
O570        O  0.66046450  0.40862889  0.56852606    -0.92440
O571        O  0.71293826  0.37846567  0.53558793    -0.91230
C572        C  0.60952332  0.26189092  0.53965822     1.17830
H573        H  0.64055744  0.38044122  0.62984999     0.33770
H574        H  0.74640153  0.31804928  0.57080200     0.44630
H575        H  0.62819646  0.24203602  0.59644567     0.38150
H576        H  0.70865062  0.27359426  0.69150821     0.34630
H577        H  0.75384196  0.41657807  0.57961353     0.26420
H578        H  0.80995637  0.25506806  0.66201457     0.32360
H579        H  0.69561918  0.17852268  0.67964138     0.38270
H580        H  0.67318649  0.43069480  0.56788995     0.32730
H581        H  0.57088234  0.35138249  0.56545846     0.31600
H582        H  0.54240590  0.30753521  0.60604557     0.33290
H583        H  0.61405295  0.18874479  0.66244170     0.32250
H584        H  0.71386211  0.35530055  0.52565224     0.36250
H585        H  0.68241377  0.29172327  0.50423713     0.28980
H586        H  0.66525570  0.29739263  0.73198499     0.33220
H587        H  0.64816577  0.20841032  0.71392641     0.36070
H588        H  0.58496456  0.37856237  0.59012849     0.28680
H589        H  0.72199181  0.29134742  0.50988260     0.41550
H590        H  0.79513811  0.34900011  0.65750983     0.31600
H591        H  0.76961823  0.39003406  0.60402592     0.39220
H592        H  0.59763248  0.21627364  0.63940031     0.31070
H593        H  0.77725281  0.23252731  0.66875155     0.31140
H594        H  0.63458773  0.32290794  0.73195556     0.31400
Zr595      Zr  0.40328081  0.08497598  0.17951569     2.17510
O596        O  0.40901371  0.11055360  0.23334483    -0.50950
O597        O  0.40666654  0.14904807  0.17343583    -0.74160
O598        O  0.45852852  0.07180787  0.20554219    -0.80940
O599        O  0.30518540  0.06738536  0.18707700    -0.82690
O600        O  0.49447694  0.04312866  0.17109232    -0.78310
O601        O  0.35353663  0.07830195  0.21640628    -0.89950
O602        O  0.40829862  0.16356988  0.12023435    -0.75910
O603        O  0.43725395  0.09346587  0.13175731    -0.85400
O604        O  0.36324183  0.10359419  0.13943527    -0.85090
O605        O  0.42813831  0.02930518  0.16597043    -0.71850
O606        O  0.36315420  0.03830461  0.17304856    -0.83980
Zr607      Zr  0.38208533  0.01115944  0.07316510     2.26420
Zr608      Zr  0.46302733  0.03848814  0.11830397     2.06270
Zr609      Zr  0.32361802  0.05705089  0.13245083     2.10050
Zr610      Zr  0.39642595  0.11108043  0.09144552     1.78760
O611        O  0.27103617  0.02870015  0.15039080    -0.92790
O612        O  0.44647983  0.13597110  0.06467776    -0.40600
O613        O  0.35531195  0.06570171  0.08365992    -0.77230
O614        O  0.42252834  0.05753828  0.07807636    -0.95910
O615        O  0.42258452  0.99209542  0.11243200    -0.89220
O616        O  0.34866399  0.00250249  0.12037789    -0.92060
C617        C  0.40887770  0.17146391  0.15023752     1.01690
C618        C  0.32085575  0.07300403  0.21371994     1.14620
C619        C  0.48663464  0.05557977  0.19931904     1.05400
O620        O  0.50808212  0.07953193  0.10458396    -0.94220
O621        O  0.47713970  0.02002253  0.06113237    -0.89960
O622        O  0.42918409  0.99475551  0.03988061    -0.83100
C623        C  0.46034039  0.00465770  0.03796672     1.12040
O624        O  0.39674065  0.97486261  0.21762816    -0.96190
Zr625      Zr  0.38836206  0.98365665  0.15960307     1.88940
O626        O  0.37556680  0.94838357  0.07401471    -0.72840
O627        O  0.50505512  0.99199959  0.12035820    -0.52100
O628        O  0.43727525  0.94562520  0.16912567    -0.96780
O629        O  0.33864801  0.95834943  0.18667507    -0.54000
O630        O  0.37517016  0.93296392  0.12711714    -0.73350
C631        C  0.37258338  0.92601891  0.09681664     0.98990
O632        O  0.37241926  0.02090708  0.01535019    -0.62180
O633        O  0.29031053  0.10843990  0.11962834    -0.56980
O634        O  0.32402196  0.00007762  0.05827227    -0.93660
O635        O  0.28869209  0.03224129  0.09014274    -0.92090
O636        O  0.34734294  0.14816302  0.07980022    -0.92440
O637        O  0.38899451  0.12073891  0.03352699    -0.91230
C638        C  0.29446719  0.01033923  0.06767880     1.17830
H639        H  0.35144416  0.12440820  0.14581461     0.33770
H640        H  0.43327063  0.06205855  0.05744748     0.44630
H641        H  0.33115316  0.98512745  0.11760413     0.38150
H642        H  0.44033802  0.01879458  0.18366027     0.34630
H643        H  0.44053125  0.16050697  0.06133604     0.26420
H644        H  0.52741507  0.00358989  0.12404564     0.32360
H645        H  0.42721582  0.92228230  0.17075651     0.38270
H646        H  0.35751163  0.17073535  0.07412766     0.32730
H647        H  0.26838360  0.09962090  0.11063881     0.31600
H648        H  0.25248964  0.04578409  0.14678597     0.33290
H649        H  0.34188734  0.93316077  0.18467270     0.32250
H650        H  0.38224486  0.09802610  0.02474914     0.36250
H651        H  0.35205066  0.03619860  0.01412493     0.28980
H652        H  0.43013791  0.12479931  0.23263054     0.33220
H653        H  0.39659548  0.94961889  0.22093223     0.36070
H654        H  0.28391770  0.11816282  0.14097446     0.28680
H655        H  0.39164096  0.03577838  0.00813770     0.41550
H656        H  0.50978981  0.09480696  0.12371947     0.31600
H657        H  0.46462402  0.13629998  0.08153930     0.39220
H658        H  0.31879534  0.96359894  0.17244821     0.31070
H659        H  0.50018135  0.97981943  0.14093142     0.31140
H660        H  0.41459835  0.09134420  0.24824278     0.31400
Zr661      Zr  0.36351810  0.66182621  0.17479152     2.17510
O662        O  0.38725576  0.66497282  0.22923713    -0.50950
O663        O  0.35102149  0.60018648  0.17526692    -0.74160
O664        O  0.31337488  0.66076013  0.21048243    -0.80940
O665        O  0.45556754  0.66031313  0.14574160    -0.82690
O666        O  0.27694570  0.70386659  0.19827186    -0.78310
O667        O  0.42044619  0.64076806  0.18603771    -0.89950
O668        O  0.33355826  0.58494883  0.12469875    -0.75910
O669        O  0.31389516  0.65354616  0.14197976    -0.85400
O670        O  0.38561710  0.64434983  0.12357553    -0.85090
O671        O  0.33685202  0.71749708  0.17256197    -0.71850
O672        O  0.40078141  0.70757725  0.15676158    -0.83980
Zr673      Zr  0.34266787  0.73811477  0.07117871     2.26420
Zr674      Zr  0.28583320  0.70871737  0.14005988     2.06270
Zr675      Zr  0.42123484  0.69049073  0.10451168     2.10050
Zr676      Zr  0.33635402  0.63654317  0.09075721     1.78760
O677        O  0.47774519  0.71603142  0.11304744    -0.92790
O678        O  0.27896391  0.61348113  0.08094902    -0.40600
O679        O  0.37163555  0.68306827  0.07073553    -0.77230
O680        O  0.30742960  0.69068614  0.08833697    -0.95910
O681        O  0.32162973  0.75559912  0.12251678    -0.89220
O682        O  0.39273230  0.74505035  0.10371468    -0.92060
C683        C  0.34031585  0.57802422  0.15447322     1.01690
C684        C  0.44984165  0.64431403  0.17257985     1.14620
C685        C  0.29511809  0.68679266  0.21860212     1.05400
O686        O  0.23814277  0.66830635  0.14443622    -0.94220
O687        O  0.24844030  0.72683074  0.09550624    -0.89960
O688        O  0.28356664  0.75057423  0.05732145    -0.83100
C689        C  0.25402552  0.74152118  0.06808866     1.12040
O690        O  0.38975366  0.76609434  0.21146095    -0.96190
Zr691      Zr  0.37245621  0.76239391  0.15469532     1.88940
O692        O  0.34743500  0.80154272  0.07370948    -0.72840
O693        O  0.24939152  0.75667450  0.15647905    -0.52100
O694        O  0.33319791  0.79972781  0.18449467    -0.96780
O695        O  0.42939655  0.78800754  0.16109720    -0.54000
O696        O  0.37012179  0.81453602  0.12300738    -0.73350
C697        C  0.35939835  0.82295337  0.09480069     0.98990
O698        O  0.32979864  0.73187021  0.01343205    -0.62180
O699        O  0.44427772  0.64586838  0.06921013    -0.56980
O700        O  0.39052598  0.75091046  0.03696699    -0.93660
O701        O  0.43859171  0.72436353  0.05669098    -0.92090
O702        O  0.37648932  0.59686109  0.06506407    -0.92440
O703        O  0.32296222  0.62783867  0.03367858    -0.91230
C704        C  0.42267747  0.74427043  0.03662325     1.17830
H705        H  0.39846280  0.62312266  0.12527360     0.33770
H706        H  0.28924047  0.68655133  0.07291823     0.44630
H707        H  0.40756565  0.76308488  0.09578945     0.38150
H708        H  0.33289160  0.72671078  0.19381664     0.34630
H709        H  0.28255325  0.58853098  0.07740625     0.26420
H710        H  0.22961832  0.74588233  0.16769609     0.32360
H711        H  0.34439584  0.82261300  0.18443411     0.38270
H712        H  0.36386772  0.57476913  0.06379457     0.32730
H713        H  0.46675273  0.65496947  0.06183710     0.31600
H714        H  0.49363761  0.70183497  0.09988218     0.33290
H715        H  0.42506071  0.81291950  0.16409852     0.32250
H716        H  0.32074607  0.65136240  0.02468726     0.36250
H717        H  0.34826091  0.71698092  0.00462962     0.28980
H718        H  0.38231797  0.64218894  0.23885168     0.33220
H719        H  0.39262082  0.79092958  0.21608791     0.36070
H720        H  0.45030222  0.62669532  0.08397936     0.28680
H721        H  0.30910076  0.71705566  0.01225499     0.41550
H722        H  0.24544704  0.65152425  0.16115241     0.31600
H723        H  0.26723373  0.61490688  0.10220382     0.39220
H724        H  0.44043000  0.78630919  0.13954443     0.31070
H725        H  0.26247312  0.76838884  0.17387416     0.31140
H726        H  0.37260397  0.68151405  0.24108109     0.31400
Zr727      Zr  0.59359060  0.11847397  0.43457519     2.17510
O728        O  0.61272238  0.11302073  0.49080067    -0.50950
O729        O  0.65734080  0.11596416  0.43383081    -0.74160
O730        O  0.58103129  0.06251973  0.45864523    -0.80940
O731        O  0.57881843  0.21677344  0.44046885    -0.82690
O732        O  0.55613827  0.02609272  0.42214447    -0.78310
O733        O  0.58569357  0.16838513  0.47078953    -0.89950
O734        O  0.67833076  0.11995428  0.38272383    -0.75910
O735        O  0.60625720  0.08458274  0.38759175    -0.85400
O736        O  0.61539776  0.15849823  0.39607867    -0.85090
O737        O  0.53967972  0.09251480  0.41751618    -0.71850
O738        O  0.54774413  0.15878622  0.42551202    -0.83980
Zr739      Zr  0.52813746  0.13968051  0.32406422     2.26420
Zr740      Zr  0.55268555  0.05857696  0.36994194     2.06270
Zr741      Zr  0.56946550  0.19798384  0.38588486     2.10050
Zr742      Zr  0.62731697  0.12536178  0.34892222     1.78760
O743        O  0.53986257  0.25024147  0.40287624    -0.92790
O744        O  0.65679235  0.07408004  0.32923734    -0.40600
O745        O  0.58204743  0.16620179  0.33797182    -0.77230
O746        O  0.57457355  0.09944444  0.33159671    -0.95910
O747        O  0.50660860  0.09892285  0.36183214    -0.89220
O748        O  0.51599265  0.17259167  0.37086493    -0.92060
C749        C  0.68249448  0.11731106  0.41342923     1.01690
C750        C  0.58224036  0.20120507  0.46747810     1.14620
C751        C  0.56675379  0.03386037  0.45103217     1.05400
O752        O  0.59444792  0.01399349  0.35663994    -0.94220
O753        O  0.53645208  0.04479259  0.31191097    -0.89960
O754        O  0.51424654  0.09340139  0.28899604    -0.83100
C755        C  0.52287638  0.06184947  0.28786755     1.12040
O756        O  0.48382991  0.12403048  0.46645602    -0.96190
Zr757      Zr  0.49475937  0.13259998  0.40879330     1.88940
O758        O  0.46498404  0.14586600  0.32168837    -0.72840
O759        O  0.50613529  0.01663065  0.37027974    -0.52100
O760        O  0.45587046  0.08403282  0.41616785    -0.96780
O761        O  0.46666775  0.18179115  0.43425754    -0.54000
O762        O  0.44624713  0.14562669  0.37384181    -0.73350
C763        C  0.44117210  0.14847061  0.34328757     0.98990
O764        O  0.54233135  0.14969816  0.26715236    -0.62180
O765        O  0.62122290  0.23119629  0.37436682    -0.56980
O766        O  0.51705714  0.19760952  0.30880077    -0.93660
O767        O  0.54670731  0.23303133  0.34264290    -0.92090
O768        O  0.66302035  0.17472707  0.33506301    -0.92440
O769        O  0.64041548  0.12769651  0.29123112    -0.91230
C770        C  0.52622427  0.22718137  0.31902682     1.17830
H771        H  0.63540875  0.17059780  0.40402164     0.33770
H772        H  0.58021898  0.08861392  0.31124662     0.44630
H773        H  0.49868035  0.18999473  0.36714898     0.38150
H774        H  0.52847452  0.07952062  0.43430840     0.34630
H775        H  0.68099272  0.08134132  0.32604055     0.26420
H776        H  0.51763180  0.99420029  0.37390241     0.32360
H777        H  0.43263174  0.09440466  0.41771180     0.38270
H778        H  0.68636564  0.16510480  0.33170525     0.32730
H779        H  0.61263850  0.25333066  0.36561898     0.31600
H780        H  0.55687478  0.26893966  0.39985478     0.33290
H781        H  0.44168411  0.17719176  0.43221769     0.32250
H782        H  0.62209738  0.14239036  0.28186597     0.36250
H783        H  0.55672780  0.17071750  0.26699390     0.28980
H784        H  0.62820059  0.09276138  0.49149513     0.33220
H785        H  0.45846362  0.12378144  0.46885828     0.36070
H786        H  0.63067954  0.23713579  0.39594131     0.28680
H787        H  0.55869690  0.13115926  0.26129658     0.41550
H788        H  0.60942458  0.01231511  0.37600782     0.31600
H789        H  0.65764730  0.05836610  0.34811511     0.39220
H790        H  0.47094349  0.20139809  0.41948011     0.31070
H791        H  0.49343275  0.02118720  0.39063273     0.31140
H792        H  0.59217267  0.10620301  0.50347488     0.31400
Zr793      Zr  0.17997905  0.15933106  0.42571002     2.17510
O794        O  0.19521200  0.14207875  0.48066352    -0.50950
O795        O  0.11814085  0.17084694  0.42804838    -0.74160
O796        O  0.17588274  0.21267669  0.45612060    -0.80940
O797        O  0.17678897  0.06773986  0.39947754    -0.82690
O798        O  0.22043474  0.24735149  0.44658799    -0.78310
O799        O  0.15463246  0.10455372  0.43722418    -0.89950
O800        O  0.10191179  0.18740246  0.37736395    -0.75910
O801        O  0.17099275  0.20817603  0.39205709    -0.85400
O802        O  0.16140147  0.13619805  0.37519741    -0.85090
O803        O  0.23534061  0.18643064  0.42153673    -0.71850
O804        O  0.22532096  0.12157745  0.40744164    -0.83980
Zr805      Zr  0.25309972  0.17813049  0.32013787     2.26420
Zr806      Zr  0.22570856  0.23673274  0.38851884     2.06270
Zr807      Zr  0.20682996  0.09992134  0.35604652     2.10050
Zr808      Zr  0.15238186  0.18473254  0.34180763     1.78760
O809        O  0.23080008  0.04272476  0.36463573    -0.92790
O810        O  0.12832530  0.24171606  0.33196922    -0.40600
O811        O  0.19828365  0.14880990  0.32145799    -0.77230
O812        O  0.20623846  0.21394989  0.33765399    -0.95910
O813        O  0.27211033  0.20040406  0.37056529    -0.89220
O814        O  0.26116233  0.12884389  0.35353413    -0.92060
C815        C  0.09553604  0.18106005  0.40735145     1.01690
C816        C  0.15934007  0.07459113  0.42539016     1.14620
C817        C  0.20233483  0.22908501  0.46594216     1.05400
O818        O  0.18540956  0.28466257  0.39188711    -0.94220
O819        O  0.24310958  0.27294888  0.34308224    -0.89960
O820        O  0.26530505  0.23682484  0.30488947    -0.83100
C821        C  0.25695947  0.26665357  0.31544466     1.12040
O822        O  0.28604537  0.13403484  0.46037869    -0.96190
Zr823      Zr  0.27994916  0.15031049  0.40353826     1.88940
O824        O  0.31654260  0.17340104  0.32076303    -0.72840
O825        O  0.27418799  0.27268590  0.40442782    -0.52100
O826        O  0.31789944  0.19017058  0.43185638    -0.96780
O827        O  0.30595983  0.09356550  0.41032915    -0.54000
O828        O  0.33111496  0.15195305  0.37016699    -0.73350
C829        C  0.33863800  0.16190694  0.34146931     0.98990
O830        O  0.24481798  0.18956471  0.26236864    -0.62180
O831        O  0.16148793  0.07692018  0.32150723    -0.56980
O832        O  0.26577170  0.12978110  0.28663144    -0.93660
O833        O  0.24132109  0.08171914  0.30855239    -0.92090
O834        O  0.11191414  0.14457293  0.31729794    -0.92440
O835        O  0.14245772  0.19728018  0.28471916    -0.91230
C836        C  0.26039936  0.09744487  0.28760527     1.17830
H837        H  0.14015374  0.12349917  0.37737968     0.33770
H838        H  0.20170997  0.23183186  0.32201256     0.44630
H839        H  0.27924635  0.11402713  0.34566748     0.38150
H840        H  0.24481064  0.19151984  0.44249455     0.34630
H841        H  0.10336182  0.23776728  0.32879611     0.26420
H842        H  0.26363423  0.29296912  0.41503055     0.32360
H843        H  0.34098115  0.17938104  0.43083991     0.38270
H844        H  0.08984030  0.15731003  0.31635212     0.32730
H845        H  0.17133798  0.05556117  0.31227567     0.31600
H846        H  0.21540379  0.02711800  0.35240292     0.33290
H847        H  0.33102969  0.09790669  0.41186854     0.32250
H848        H  0.16576582  0.20038273  0.27547662     0.36250
H849        H  0.22947450  0.17100882  0.25451404     0.28980
H850        H  0.22060373  0.14385654  0.48110283     0.33220
H851        H  0.31106940  0.13126568  0.46419120     0.36070
H852        H  0.14356772  0.06883932  0.33677176     0.28680
H853        H  0.23013028  0.21036930  0.26118775     0.41550
H854        H  0.16806989  0.27743439  0.40809919     0.31600
H855        H  0.12992839  0.25361108  0.35313019     0.39220
H856        H  0.30293944  0.08175063  0.38927837     0.31070
H857        H  0.28550345  0.25990515  0.42226945     0.31140
H858        H  0.19106606  0.11705598  0.48260750     0.31400
Zr859      Zr  0.88585320  0.18921769  0.02148654     2.17510
O860        O  0.86567834  0.22693025  0.97815643    -0.50950
O861        O  0.89134041  0.23584203  0.06055148    -0.74160
O862        O  0.82457792  0.19981369  0.02674639    -0.80940
O863        O  0.98019260  0.19749965  0.99978181    -0.82690
O864        O  0.79743123  0.14820296  0.02451115    -0.78310
O865        O  0.92907985  0.22609508  0.99766496    -0.89950
O866        O  0.91022166  0.21175617  0.10745235    -0.75910
O867        O  0.86551467  0.16036049  0.06886618    -0.85400
O868        O  0.93620172  0.17699811  0.05204122    -0.85090
O869        O  0.85755916  0.13827034  0.00175898    -0.71850
O870        O  0.92156122  0.15471762  0.98687359    -0.83980
Zr871      Zr  0.92383126  0.06138332  0.04575146     2.26420
Zr872      Zr  0.83823060  0.10835109  0.05006559     2.06270
Zr873      Zr  0.97079969  0.14050937  0.01894790     2.10050
Zr874      Zr  0.91639506  0.14879050  0.09905887     1.78760
O875        O  0.00471008  0.14260740  0.96933120    -0.92790
O876        O  0.87561828  0.15356164  0.14366770    -0.40600
O877        O  0.95259913  0.11139838  0.06681094    -0.77230
O878        O  0.88885641  0.09631301  0.08125366    -0.95910
O879        O  0.87342731  0.07400313  0.01527775    -0.89220
O880        O  0.94244911  0.09082305  0.99864774    -0.92060
C881        C  0.90132613  0.23805032  0.09014830     1.01690
C882        C  0.96164017  0.22370500  0.99314115     1.14620
C883        C  0.79947326  0.18053488  0.01821584     1.05400
O884        O  0.81011614  0.12432872  0.10057732    -0.94220
O885        O  0.83153388  0.04821345  0.07023874    -0.89960
O886        O  0.88367876  0.02139075  0.06862994    -0.83100
C887        C  0.85150829  0.02196872  0.07492334     1.12040
O888        O  0.87577724  0.14285479  0.92460418    -0.96190
Zr889      Zr  0.89278499  0.10404439  0.96828641     1.88940
O890        O  0.91456291  0.01702601  0.00441091    -0.72840
O891        O  0.78528862  0.07876824  0.03493402    -0.52100
O892        O  0.83717786  0.08625992  0.94661050    -0.96780
O893        O  0.93211115  0.10095107  0.92223154    -0.54000
O894        O  0.89841898  0.04347402  0.95756390    -0.73350
C895        C  0.90551649  0.01681130  0.97440370     0.98990
O896        O  0.94978524  0.02720472  0.08896094    -0.62180
O897        O  0.01847628  0.15844151  0.05339660    -0.56980
O898        O  0.98253547  0.04558039  0.03241746    -0.93660
O899        O  0.01154427  0.09396127  0.01744138    -0.92090
O900        O  0.97198485  0.16608654  0.12099281    -0.92440
O901        O  0.93290943  0.11510372  0.14637859    -0.91230
C902        C  0.00924520  0.06156674  0.02211848     1.17830
H903        H  0.94885330  0.19757004  0.05753497     0.33770
H904        H  0.88269817  0.08319620  0.10027696     0.44630
H905        H  0.95722823  0.07694085  0.98516748     0.38150
H906        H  0.83985261  0.14438846  0.98643397     0.34630
H907        H  0.88745461  0.16810306  0.15992536     0.26420
H908        H  0.76650598  0.09199118  0.04534638     0.32360
H909        H  0.84273917  0.07216574  0.92731875     0.38270
H910        H  0.96634475  0.18149817  0.13934556     0.32730
H911        H  0.03800728  0.16173470  0.03829841     0.31600
H912        H  0.02806877  0.14959340  0.97634991     0.33290
H913        H  0.92079114  0.08515910  0.90670459     0.32250
H914        H  0.94311175  0.09382317  0.13731570     0.36250
H915        H  0.97142759  0.03933588  0.09446110     0.28980
H916        H  0.85294639  0.24573636  0.98905874     0.33220
H917        H  0.87038180  0.12796927  0.90580660     0.36070
H918        H  0.01240820  0.18200739  0.06050403     0.28680
H919        H  0.93490436  0.03109113  0.10809593     0.41550
H920        H  0.79671202  0.14524540  0.09516246     0.31600
H921        H  0.85688998  0.16836230  0.13521995     0.39220
H922        H  0.95248640  0.08802385  0.92994748     0.31070
H923        H  0.78252745  0.08305056  0.01141342     0.31140
H924        H  0.84787599  0.21356903  0.96647490     0.31400
Zr925      Zr  0.15268154  0.81765573  0.51178947     2.17510
O926        O  0.17433837  0.78744246  0.46420426    -0.50950
O927        O  0.14982162  0.76755166  0.54551260    -0.74160
O928        O  0.21321308  0.80637963  0.51958397    -0.80940
O929        O  0.05812506  0.80862276  0.49207619    -0.82690
O930        O  0.24055275  0.85794186  0.52247794    -0.78310
O931        O  0.10944814  0.78061834  0.48796442    -0.89950
O932        O  0.12660393  0.78414135  0.59356276    -0.75910
O933        O  0.17241252  0.84191049  0.56154686    -0.85400
O934        O  0.10216136  0.82556496  0.54325245    -0.85090
O935        O  0.18117885  0.87001150  0.49692672    -0.71850
O936        O  0.11563153  0.85329841  0.48000693    -0.83980
Zr937      Zr  0.11284137  0.94151245  0.54555203     2.26420
Zr938      Zr  0.19858530  0.89609363  0.54774934     2.06270
Zr939      Zr  0.06681232  0.86446532  0.51363145     2.10050
Zr940      Zr  0.12148712  0.84872847  0.59255186     1.78760
O941        O  0.03276073  0.86583614  0.46404935    -0.92790
O942        O  0.16351064  0.83808071  0.63526781    -0.40600
O943        O  0.08519797  0.88928654  0.56343357    -0.77230
O944        O  0.14748243  0.90388607  0.57915491    -0.95910
O945        O  0.16329088  0.93186886  0.51446953    -0.89220
O946        O  0.09468592  0.91563024  0.49654160    -0.92060
C947        C  0.13789573  0.76083675  0.57362678     1.01690
C948        C  0.07670435  0.78280874  0.48439870     1.14620
C949        C  0.23900503  0.82607360  0.51456280     1.05400
O950        O  0.22511118  0.87843371  0.59857585    -0.94220
O951        O  0.20473052  0.95514737  0.57029594    -0.89960
O952        O  0.15203709  0.98077933  0.57070813    -0.83100
C953        C  0.18430617  0.98062345  0.57645500     1.12040
O954        O  0.16280603  0.86784080  0.42093288    -0.96190
Zr955      Zr  0.14459172  0.90490188  0.46545320     1.88940
O956        O  0.12237180  0.98846442  0.50609162    -0.72840
O957        O  0.25160111  0.92675657  0.53494265    -0.52100
O958        O  0.19888302  0.92610365  0.44364230    -0.96780
O959        O  0.10515045  0.91013264  0.41961574    -0.54000
O960        O  0.13727482  0.96504701  0.45750375    -0.73350
C961        C  0.13071935  0.99048933  0.47586586     0.98990
O962        O  0.08665533  0.97244731  0.59072367    -0.62180
O963        O  0.01926856  0.84374421  0.54680309    -0.56980
O964        O  0.05401338  0.95768340  0.53357258    -0.93660
O965        O  0.02535663  0.91011348  0.51602587    -0.92090
O966        O  0.06602337  0.83029105  0.61387159    -0.92440
O967        O  0.10644597  0.87672221  0.64342193    -0.91230
C968        C  0.02739001  0.94210748  0.52260723     1.17830
H969        H  0.08983900  0.80437223  0.54699374     0.33770
H970        H  0.15319300  0.91554989  0.59912008     0.44630
H971        H  0.07965897  0.93031281  0.48405115     0.38150
H972        H  0.19982541  0.86543051  0.48212074     0.34630
H973        H  0.15173677  0.82220556  0.65041895     0.26420
H974        H  0.27023535  0.91346960  0.54555274     0.32360
H975        H  0.19240186  0.93961818  0.42421714     0.38270
H976        H  0.07163259  0.81165407  0.62937954     0.32730
H977        H  0.00028466  0.83969245  0.53123701     0.31600
H978        H  0.00960913  0.85771906  0.47055220     0.33290
H979        H  0.11666292  0.92622224  0.40449251     0.32250
H980        H  0.09644405  0.89911476  0.63684546     0.36250
H981        H  0.06507977  0.95984413  0.59544363     0.28980
H982        H  0.18613051  0.76674711  0.47278781     0.33220
H983        H  0.16678680  0.88331117  0.40223737     0.36070
H984        H  0.02633240  0.82041350  0.55381095     0.28680
H985        H  0.10153806  0.96728946  0.60961412     0.41550
H986        H  0.23880015  0.85778082  0.59293367     0.31600
H987        H  0.18150584  0.82373253  0.62495812     0.39220
H988        H  0.08504779  0.92315332  0.42778938     0.31070
H989        H  0.25516097  0.92326350  0.51140818     0.31140
H990        H  0.19306963  0.80214910  0.45568197     0.31400
Zr991      Zr  0.70568124  0.63390119  0.27229141     2.17510
O992        O  0.74392837  0.65322162  0.22907590    -0.50950
O993        O  0.75179029  0.62864892  0.31167653    -0.74160
O994        O  0.71681613  0.69507554  0.27648298    -0.80940
O995        O  0.71370618  0.53921691  0.25099946    -0.82690
O996        O  0.66524303  0.72278164  0.27568489    -0.78310
O997        O  0.74251932  0.59015813  0.24906473    -0.89950
O998        O  0.72741568  0.60970006  0.35837738    -0.75910
O999        O  0.67644816  0.65463614  0.31931336    -0.85400
O1000       O  0.69297397  0.58380649  0.30294435    -0.85090
O1001       O  0.65520691  0.66267432  0.25211879    -0.71850
O1002       O  0.67171616  0.59811630  0.23745215    -0.83980
Zr1003     Zr  0.57753465  0.59695592  0.29512739     2.26420
Zr1004     Zr  0.62466063  0.68209247  0.30001374     2.06270
Zr1005     Zr  0.65667626  0.54927081  0.26963336     2.10050
Zr1006     Zr  0.66438775  0.60401706  0.34959009     1.78760
O1007       O  0.65850395  0.51550002  0.21993041    -0.92790
O1008       O  0.66906443  0.64514470  0.39391369    -0.40600
O1009       O  0.62710749  0.56799271  0.31703788    -0.77230
O1010       O  0.61211831  0.63166743  0.33113699    -0.95910
O1011       O  0.59088744  0.64706126  0.26466519    -0.89220
O1012       O  0.60751344  0.57792805  0.24850379    -0.92060
C1013       C  0.75381449  0.61854317  0.34120998     1.01690
C1014       C  0.74000476  0.55762325  0.24448996     1.14620
C1015       C  0.69755776  0.72070856  0.26928611     1.05400
O1016       O  0.63958349  0.71047930  0.35068395    -0.94220
O1017       O  0.56426190  0.68911686  0.31951761    -0.89960
O1018       O  0.53730085  0.63713966  0.31740560    -0.83100
C1019       C  0.53787767  0.66925251  0.32377409     1.12040
O1020       O  0.66160328  0.64399622  0.17533637    -0.96190
Zr1021     Zr  0.62166489  0.62737488  0.21818351     1.88940
O1022       O  0.53407148  0.60694381  0.25292142    -0.72840
O1023       O  0.59531159  0.73474323  0.28353339    -0.52100
O1024       O  0.60442458  0.68285072  0.19581843    -0.96780
O1025       O  0.61890341  0.58790152  0.17223458    -0.54000
O1026       O  0.56151407  0.62224270  0.20636378    -0.73350
C1027       C  0.53452580  0.61577343  0.22284478     0.98990
O1028       O  0.54243284  0.57142420  0.33785821    -0.62180
O1029       O  0.67422761  0.50146428  0.30410913    -0.56980
O1030       O  0.56150920  0.53841879  0.28196468    -0.93660
O1031       O  0.60998879  0.50880985  0.26826187    -0.92090
O1032       O  0.68104280  0.54847255  0.37205767    -0.92440
O1033       O  0.63023932  0.58812775  0.39676067    -0.91230
C1034       C  0.57752457  0.51145296  0.27235125     1.17830
H1035       H  0.71345185  0.57106612  0.30867032     0.33770
H1036       H  0.59875864  0.63790567  0.34998417     0.44630
H1037       H  0.59372439  0.56316160  0.23492689     0.38150
H1038       H  0.66155988  0.68049312  0.23702269     0.34630
H1039       H  0.68342339  0.63335662  0.41037406     0.26420
H1040       H  0.60802043  0.75365356  0.29427829     0.32360
H1041       H  0.59097786  0.67721403  0.17612672     0.38270
H1042       H  0.69651643  0.55410314  0.39038266     0.32730
H1043       H  0.67829198  0.48216711  0.28891569     0.31600
H1044       H  0.66530680  0.49207090  0.22689750     0.33290
H1045       H  0.60391254  0.59957750  0.15621190     0.32250
H1046       H  0.60883488  0.57827571  0.38760190     0.36250
H1047       H  0.55428825  0.54968118  0.34358044     0.28980
H1048       H  0.76302337  0.66545508  0.24004034     0.33220
H1049       H  0.64719562  0.64922012  0.15614553     0.36070
H1050       H  0.69747448  0.50775136  0.31197043     0.28680
H1051       H  0.54614366  0.58627684  0.35704199     0.41550
H1052       H  0.66112023  0.72309700  0.34584819     0.31600
H1053       H  0.68404302  0.66368015  0.38543871     0.39220
H1054       H  0.60516083  0.56798321  0.17967674     0.31070
H1055       H  0.60047640  0.73735517  0.26016108     0.31140
H1056       H  0.73100834  0.67135567  0.21736895     0.31400
Zr1057     Zr  0.94305039  0.61810096  0.33121020     2.17510
O1058       O  0.92392466  0.61277618  0.27497792    -0.50950
O1059       O  0.87930955  0.61577004  0.33159638    -0.74160
O1060       O  0.95584386  0.56224542  0.30707317    -0.80940
O1061       O  0.95719791  0.71642258  0.32570378    -0.82690
O1062       O  0.98072245  0.52576893  0.34360517    -0.78310
O1063       O  0.95151209  0.66804131  0.29519582    -0.89950
O1064       O  0.85810179  0.61961880  0.38262809    -0.75910
O1065       O  0.93026597  0.58412959  0.37811488    -0.85400
O1066       O  0.92104188  0.65808960  0.36964132    -0.85090
O1067       O  0.99695022  0.59215273  0.34840059    -0.71850
O1068       O  0.98872239  0.65843702  0.34050604    -0.83980
Zr1069     Zr  0.00830418  0.63917382  0.44185065     2.26420
Zr1070     Zr  0.98384260  0.55815158  0.39591635     2.06270
Zr1071     Zr  0.96685386  0.69754219  0.38013126     2.10050
Zr1072     Zr  0.90899193  0.62488360  0.41669712     1.78760
O1073       O  0.99718912  0.74926923  0.36292419    -0.92790
O1074       O  0.87954565  0.57356967  0.43627236    -0.40600
O1075       O  0.95426881  0.66557290  0.42790851    -0.77230
O1076       O  0.96180371  0.59907859  0.43414742    -0.95910
O1077       O  0.02990436  0.59846299  0.40407944    -0.89220
O1078       O  0.02040737  0.67223339  0.39515528    -0.92060
C1079       C  0.85406267  0.61709441  0.35189141     1.01690
C1080       C  0.95448132  0.70087535  0.29864644     1.14620
C1081       C  0.97018597  0.53358922  0.31467995     1.05400
O1082       O  0.94219739  0.51338280  0.40882732    -0.94220
O1083       O  0.99926497  0.54450635  0.45420758    -0.89960
O1084       O  0.02252654  0.59276309  0.47673046    -0.83100
C1085       C  0.01310805  0.56146132  0.47815466     1.12040
O1086       O  0.05259979  0.62366316  0.29951555    -0.96190
Zr1087     Zr  0.04174194  0.63228936  0.35717978     1.88940
O1088       O  0.07151093  0.64597789  0.44407898    -0.72840
O1089       O  0.03055266  0.51631579  0.39600931    -0.52100
O1090       O  0.08091478  0.58386886  0.34996609    -0.96780
O1091       O  0.06952818  0.68152898  0.33154117    -0.54000
O1092       O  0.09024392  0.64561545  0.39192909    -0.73350
C1093       C  0.09532168  0.64863845  0.42245356     0.98990
O1094       O  0.99415706  0.64861488  0.49886726    -0.62180
O1095       O  0.91523321  0.73110944  0.39148567    -0.56980
O1096       O  0.01848406  0.69714379  0.45745121    -0.93660
O1097       O  0.98879839  0.73261906  0.42362822    -0.92090
O1098       O  0.87329127  0.67434712  0.43039392    -0.92440
O1099       O  0.89549565  0.62718315  0.47430492    -0.91230
C1100       C  0.00909786  0.72673410  0.44738035     1.17830
H1101       H  0.90105329  0.67022266  0.36164247     0.33770
H1102       H  0.95603519  0.58833193  0.45450802     0.44630
H1103       H  0.03760316  0.68969764  0.39898142     0.38150
H1104       H  0.00825708  0.57919760  0.33164255     0.34630
H1105       H  0.85529942  0.58079528  0.43930019     0.26420
H1106       H  0.01916363  0.49386101  0.39233884     0.32360
H1107       H  0.10407287  0.59434713  0.34821181     0.38270
H1108       H  0.84988819  0.66481337  0.43352694     0.32730
H1109       H  0.92392242  0.75362352  0.39916965     0.31600
H1110       H  0.98046653  0.76825281  0.36592963     0.33290
H1111       H  0.09453675  0.67693158  0.33338829     0.32250
H1112       H  0.91413856  0.64126820  0.48387973     0.36250
H1113       H  0.97966829  0.66959001  0.49922975     0.28980
H1114       H  0.90856341  0.59245451  0.27423783     0.33220
H1115       H  0.07796262  0.62340309  0.29708151     0.36070
H1116       H  0.90519806  0.73610120  0.36992212     0.28680
H1117       H  0.97787176  0.62998560  0.50460980     0.41550
H1118       H  0.92721617  0.51190447  0.38945108     0.31600
H1119       H  0.87887717  0.55784185  0.41741223     0.39220
H1120       H  0.06534238  0.70109825  0.34637816     0.31070
H1121       H  0.04339637  0.52087940  0.37573689     0.31140
H1122       H  0.94451030  0.60608321  0.26228722     0.31400
Zr1123     Zr  0.35654015  0.66011310  0.33926028     2.17510
O1124       O  0.34102654  0.64286083  0.28441148    -0.50950
O1125       O  0.41839678  0.67152269  0.33690438    -0.74160
O1126       O  0.36074732  0.71353931  0.30893751    -0.80940
O1127       O  0.35991816  0.56851198  0.36554517    -0.82690
O1128       O  0.31643707  0.74850159  0.31880765    -0.78310
O1129       O  0.38194115  0.60532924  0.32772998    -0.89950
O1130       O  0.43471465  0.68756842  0.38769255    -0.75910
O1131       O  0.36570707  0.70868852  0.37313650    -0.85400
O1132       O  0.37507649  0.63662925  0.38966974    -0.85090
O1133       O  0.30127120  0.68745738  0.34356137    -0.71850
O1134       O  0.31103312  0.62254330  0.35739226    -0.83980
Zr1135     Zr  0.28347138  0.67863576  0.44498674     2.26420
Zr1136     Zr  0.31109410  0.73747400  0.37680086     2.06270
Zr1137     Zr  0.32950801  0.60055380  0.40869295     2.10050
Zr1138     Zr  0.38427345  0.68487298  0.42328243     1.78760
O1139       O  0.30627204  0.54316072  0.39975251    -0.92790
O1140       O  0.40843151  0.74173830  0.43328236    -0.40600
O1141       O  0.33823521  0.64909855  0.44358992    -0.77230
O1142       O  0.33051593  0.71421141  0.42753490    -0.95910
O1143       O  0.26450775  0.70136523  0.39466564    -0.89220
O1144       O  0.27526620  0.62971995  0.41122590    -0.92060
C1145       C  0.44104592  0.68147931  0.35765234     1.01690
C1146       C  0.37739051  0.57538691  0.33968040     1.14620
C1147       C  0.33434950  0.73021865  0.29930467     1.05400
O1148       O  0.35116745  0.78551407  0.37322347    -0.94220
O1149       O  0.29457011  0.77360427  0.42249302    -0.89960
O1150       O  0.27213638  0.73744927  0.46055273    -0.83100
C1151       C  0.28086345  0.76724513  0.45016930     1.12040
O1152       O  0.25018493  0.63564070  0.30451320    -0.96190
Zr1153     Zr  0.25647500  0.65154069  0.36141218     1.88940
O1154       O  0.21998340  0.67419173  0.44440461    -0.72840
O1155       O  0.26228622  0.77325755  0.36127531    -0.52100
O1156       O  0.21854720  0.69168479  0.33332588    -0.96780
O1157       O  0.23053018  0.59484290  0.35434088    -0.54000
O1158       O  0.20533416  0.65299861  0.39494602    -0.73350
C1159       C  0.19784559  0.66277682  0.42371499     0.98990
O1160       O  0.29146847  0.68951093  0.50287393    -0.62180
O1161       O  0.37441247  0.57776996  0.44392058    -0.56980
O1162       O  0.27029258  0.62983674  0.47786365    -0.93660
O1163       O  0.29408382  0.58180295  0.45521986    -0.92090
O1164       O  0.42459814  0.64440686  0.44767520    -0.92440
O1165       O  0.39429343  0.69728148  0.48037042    -0.91230
C1166       C  0.27503448  0.59740994  0.47623679     1.17830
H1167       H  0.39629320  0.62385139  0.38747271     0.33770
H1168       H  0.33527329  0.73190065  0.44328114     0.44630
H1169       H  0.25701733  0.61498108  0.41882492     0.38150
H1170       H  0.29180658  0.69273099  0.32263701     0.34630
H1171       H  0.43342200  0.73772652  0.43623470     0.26420
H1172       H  0.27266435  0.79373566  0.35086497     0.32360
H1173       H  0.19544154  0.68098587  0.33437932     0.38270
H1174       H  0.44671895  0.65702455  0.44864261     0.32730
H1175       H  0.36447563  0.55646362  0.45316329     0.31600
H1176       H  0.32155446  0.52768097  0.41229212     0.33290
H1177       H  0.20540841  0.59912040  0.35344213     0.32250
H1178       H  0.37097616  0.69945811  0.48983281     0.36250
H1179       H  0.30628021  0.67052344  0.51078006     0.28980
H1180       H  0.31567526  0.64515371  0.28392805     0.33220
H1181       H  0.22515353  0.63284206  0.30079006     0.36070
H1182       H  0.39255005  0.56960428  0.42891893     0.28680
H1183       H  0.30664308  0.70992473  0.50426096     0.41550
H1184       H  0.36893823  0.77798611  0.35754956     0.31600
H1185       H  0.40663918  0.75380681  0.41221066     0.39220
H1186       H  0.23415681  0.58262678  0.37511484     0.31070
H1187       H  0.25108742  0.76060894  0.34330719     0.31140
H1188       H  0.34470895  0.61774204  0.28267438     0.31400
Zr1189     Zr  0.13251600  0.58447797  0.58502757     2.17510
O1190       O  0.12561164  0.61045374  0.53145311    -0.50950
O1191       O  0.12959785  0.64855515  0.59165838    -0.74160
O1192       O  0.07664976  0.57197949  0.56007753    -0.80940
O1193       O  0.22991374  0.56568844  0.57514904    -0.82690
O1194       O  0.04135293  0.54337803  0.59513541    -0.78310
O1195       O  0.18112646  0.57784255  0.54690221    -0.89950
O1196       O  0.12834392  0.66271646  0.64494910    -0.75910
O1197       O  0.09997488  0.59343151  0.63356801    -0.85400
O1198       O  0.17384009  0.60251071  0.62407580    -0.85090
O1199       O  0.10754002  0.52904781  0.59909577    -0.71850
O1200       O  0.17216715  0.53708103  0.59049016    -0.83980
Zr1201     Zr  0.15572684  0.51028177  0.69094713     2.26420
Zr1202     Zr  0.07388337  0.53878506  0.64740933     2.06270
Zr1203     Zr  0.21298588  0.55541469  0.63007949     2.10050
Zr1204     Zr  0.14214901  0.61027238  0.67293673     1.78760
O1205       O  0.26614198  0.52950456  0.61036456    -0.92790
O1206       O  0.09398957  0.63494970  0.70277582    -0.40600
O1207       O  0.18281266  0.56436347  0.67960205    -0.77230
O1208       O  0.11563159  0.55712208  0.68679496    -0.95910
O1209       O  0.11390526  0.49181477  0.65268350    -0.89220
O1210       O  0.18793343  0.50100917  0.64303239    -0.92060
C1211       C  0.12746702  0.67080080  0.61500626     1.01690
C1212       C  0.21375701  0.57198634  0.54892737     1.14620
C1213       C  0.04866964  0.55581503  0.56676539     1.05400
O1214       O  0.03035132  0.58117926  0.66197969    -0.94220
O1215       O  0.06076633  0.52038661  0.70470938    -0.89960
O1216       O  0.10892389  0.49456329  0.72504908    -0.83100
C1217       C  0.07789078  0.50480881  0.72753477     1.12040
O1218       O  0.13602271  0.47331486  0.54720848    -0.96190
Zr1219     Zr  0.14673852  0.48272857  0.60481322     1.88940
O1220       O  0.16215740  0.44751468  0.69006049    -0.72840
O1221       O  0.03044341  0.49363047  0.64669263    -0.52100
O1222       O  0.09637793  0.44614408  0.59734806    -0.96780
O1223       O  0.19472544  0.45620601  0.57606438    -0.54000
O1224       O  0.16008207  0.43182399  0.63708143    -0.73350
C1225       C  0.16383930  0.42498755  0.66730973     0.98990
O1226       O  0.16614330  0.51914747  0.74883717    -0.62180
O1227       O  0.24545492  0.60711479  0.64338977    -0.56980
O1228       O  0.21438264  0.50170589  0.70579193    -0.93660
O1229       O  0.24938395  0.53082432  0.67126376    -0.92090
O1230       O  0.19133479  0.64799971  0.68180081    -0.92440
O1231       O  0.15407482  0.61913250  0.73029469    -0.91230
C1232       C  0.24390304  0.51121533  0.69555756     1.17830
H1233       H  0.18563586  0.62319603  0.61736283     0.33770
H1234       H  0.10540373  0.56174604  0.70763185     0.44630
H1235       H  0.20541958  0.48354987  0.64570504     0.38150
H1236       H  0.09490153  0.51868366  0.58162741     0.34630
H1237       H  0.10029504  0.65937828  0.70614849     0.26420
H1238       H  0.00835363  0.50588413  0.64337028     0.32360
H1239       H  0.10562725  0.42243707  0.59598703     0.38270
H1240       H  0.18125177  0.67020623  0.68877387     0.32730
H1241       H  0.26489804  0.59887295  0.65685441     0.31600
H1242       H  0.28420341  0.54693301  0.61454194     0.33290
H1243       H  0.19105203  0.43110423  0.57833170     0.32250
H1244       H  0.15313898  0.59583541  0.73995013     0.36250
H1245       H  0.18617164  0.53484191  0.75014482     0.28980
H1246       H  0.10466529  0.62494862  0.53272620     0.33220
H1247       H  0.13500269  0.44803552  0.54432523     0.36070
H1248       H  0.25623164  0.61413683  0.62267945     0.28680
H1249       H  0.14678665  0.53349110  0.75668272     0.41550
H1250       H  0.02766876  0.59568029  0.64239927     0.31600
H1251       H  0.07485644  0.63570248  0.68692477     0.39220
H1252       H  0.21521505  0.46108738  0.58957566     0.31070
H1253       H  0.03444433  0.48109138  0.62615047     0.31140
H1254       H  0.11944620  0.59142091  0.51658218     0.31400
Zr1255     Zr  0.17247683  0.16037208  0.59109130     2.17510
O1256       O  0.14889574  0.16302307  0.53655343    -0.50950
O1257       O  0.18512426  0.09878739  0.59089780    -0.74160
O1258       O  0.22224583  0.15933403  0.55489729    -0.80940
O1259       O  0.08043990  0.15954826  0.62004042    -0.82690
O1260       O  0.25894238  0.20216500  0.56722016    -0.78310
O1261       O  0.11552226  0.13960895  0.57986755    -0.89950
O1262       O  0.20269016  0.08370431  0.64149128    -0.75910
O1263       O  0.22210736  0.15202726  0.62386731    -0.85400
O1264       O  0.15036729  0.14317864  0.64242722    -0.85090
O1265       O  0.19916273  0.21594611  0.59297688    -0.71850
O1266       O  0.13516233  0.20618440  0.60899712    -0.83980
Zr1267     Zr  0.19368259  0.23708748  0.69427533     2.26420
Zr1268     Zr  0.25021181  0.20712380  0.62542616     2.06270
Zr1269     Zr  0.11483563  0.18948703  0.66142886     2.10050
Zr1270     Zr  0.19966963  0.13537897  0.67521983     1.78760
O1271       O  0.05802388  0.21463812  0.65339890    -0.92790
O1272       O  0.25706034  0.11234778  0.68530138    -0.40600
O1273       O  0.16455240  0.18214123  0.69509349    -0.77230
O1274       O  0.22868860  0.18940729  0.67726612    -0.95910
O1275       O  0.21449828  0.25420968  0.64274643    -0.89220
O1276       O  0.14347748  0.24392985  0.66182850    -0.92060
C1277       C  0.19593313  0.07671205  0.61174561     1.01690
C1278       C  0.08612435  0.14343393  0.59324501     1.14620
C1279       C  0.24076150  0.18519914  0.54684958     1.05400
O1280       O  0.29777881  0.16651416  0.62093376    -0.94220
O1281       O  0.28790554  0.22494570  0.66979076    -0.89960
O1282       O  0.25304744  0.24876983  0.70815543    -0.83100
C1283       C  0.28253024  0.23954805  0.69727308     1.12040
O1284       O  0.14637090  0.26415366  0.55382446    -0.96190
Zr1285     Zr  0.16352864  0.26090224  0.61066113     1.88940
O1286       O  0.18903644  0.30055311  0.69111370    -0.72840
O1287       O  0.28664984  0.25499064  0.60888029    -0.52100
O1288       O  0.20249860  0.29836643  0.58071739    -0.96780
O1289       O  0.10640478  0.28613742  0.60404272    -0.54000
O1290       O  0.16563949  0.31318688  0.64199911    -0.73350
C1291       C  0.17673441  0.32180787  0.67000131     0.98990
O1292       O  0.20640713  0.23119128  0.75210027    -0.62180
O1293       O  0.09216901  0.14481726  0.69689197    -0.56980
O1294       O  0.14599722  0.25044213  0.72850390    -0.93660
O1295       O  0.09778346  0.22397781  0.70910373    -0.92090
O1296       O  0.15954486  0.09573186  0.70092097    -0.92440
O1297       O  0.21291037  0.12689864  0.73236949    -0.91230
C1298       C  0.11382580  0.24398527  0.72899578     1.17830
H1299       H  0.13748995  0.12198353  0.64082345     0.33770
H1300       H  0.24687816  0.18518631  0.69266871     0.44630
H1301       H  0.12869318  0.26207147  0.66964851     0.38150
H1302       H  0.20305428  0.22508584  0.57167754     0.34630
H1303       H  0.25350427  0.08740196  0.68888539     0.26420
H1304       H  0.30637132  0.24414851  0.59760764     0.32360
H1305       H  0.19101331  0.32112605  0.58049050     0.38270
H1306       H  0.17225103  0.07368004  0.70238030     0.32730
H1307       H  0.07021030  0.15431981  0.70516867     0.31600
H1308       H  0.04236477  0.20021745  0.66658399     0.33290
H1309       H  0.11054591  0.31107878  0.60104693     0.32250
H1310       H  0.21560773  0.15044900  0.74115321     0.36250
H1311       H  0.18789762  0.21643205  0.76097901     0.28980
H1312       H  0.15441075  0.14034747  0.52699066     0.33220
H1313       H  0.14316494  0.28893043  0.54907617     0.36070
H1314       H  0.08513986  0.12605657  0.68207232     0.28680
H1315       H  0.22706086  0.21629846  0.75344399     0.41550
H1316       H  0.29036007  0.14974096  0.60427886     0.31600
H1317       H  0.26888001  0.11374651  0.66408862     0.39220
H1318       H  0.09530782  0.28434733  0.62556064     0.31070
H1319       H  0.27352030  0.26674283  0.59151729     0.31140
H1320       H  0.16323513  0.17986826  0.52474926     0.31400
Zr1321     Zr  0.10184344  0.38600135  0.83715976     2.17510
O1322       O  0.12746452  0.39091738  0.78327783    -0.50950
O1323       O  0.16599982  0.38914415  0.84356965    -0.74160
O1324       O  0.08915939  0.44104361  0.81054934    -0.80940
O1325       O  0.08282692  0.28820951  0.83041079    -0.82690
O1326       O  0.06061831  0.47760709  0.84448691    -0.78310
O1327       O  0.09536448  0.33597430  0.80083215    -0.89950
O1328       O  0.17999697  0.39259251  0.89681716    -0.75910
O1329       O  0.11049761  0.42045786  0.88449134    -0.85400
O1330       O  0.11977773  0.34621153  0.87771481    -0.85090
O1331       O  0.04618897  0.41129408  0.85003890    -0.71850
O1332       O  0.05465795  0.34641773  0.84393051    -0.83980
Zr1333     Zr  0.02721270  0.36697890  0.94360660     2.26420
Zr1334     Zr  0.05559205  0.44673524  0.89722964     2.06270
Zr1335     Zr  0.07273161  0.30715854  0.88501166     2.10050
Zr1336     Zr  0.12747161  0.37995436  0.92530515     1.78760
O1337       O  0.04399174  0.25455955  0.86773143    -0.92790
O1338       O  0.15175888  0.42977466  0.95290967    -0.40600
O1339       O  0.08154064  0.33953050  0.93338789    -0.77230
O1340       O  0.07411530  0.40672676  0.93809060    -0.95910
O1341       O  0.00870051  0.40693643  0.90364858    -0.89220
O1342       O  0.01835850  0.33282889  0.89684582    -0.92060
C1343       C  0.18819848  0.39226710  0.86688610     1.01690
C1344       C  0.08934572  0.30348698  0.80373552     1.14620
C1345       C  0.07308016  0.46930787  0.81644533     1.05400
O1346       O  0.09652299  0.49215726  0.91015798    -0.94220
O1347       O  0.03783679  0.46264951  0.95377755    -0.89960
O1348       O  0.01216037  0.41544874  0.97602878    -0.83100
C1349       C  0.02242581  0.44656194  0.97724701     1.12040
O1350       O  0.99107505  0.37987711  0.79886378    -0.96190
Zr1351     Zr  0.00006867  0.37207123  0.85693858     1.88940
O1352       O  0.96429736  0.36092538  0.94254428    -0.72840
O1353       O  0.00862350  0.48818855  0.89439900    -0.52100
O1354       O  0.96239046  0.42110104  0.84675008    -0.96780
O1355       O  0.97489442  0.32204070  0.83030130    -0.54000
O1356       O  0.94907043  0.35976107  0.88939373    -0.73350
C1357       C  0.94196597  0.35773778  0.91970566     0.98990
O1358       O  0.03622764  0.35854456  0.00173137    -0.62180
O1359       O  0.12399454  0.27367907  0.89793751    -0.56980
O1360       O  0.01667511  0.30916365  0.95993877    -0.93660
O1361       O  0.04805316  0.27308617  0.92815289    -0.92090
O1362       O  0.16513628  0.33115408  0.93627890    -0.92440
O1363       O  0.13683379  0.37156720  0.98314628    -0.91230
C1364       C  0.02686537  0.27936034  0.95114688     1.17830
H1365       H  0.14053381  0.33419057  0.87151690     0.33770
H1366       H  0.07877138  0.41774617  0.95855901     0.44630
H1367       H  0.00087834  0.31548727  0.89997711     0.38150
H1368       H  0.03588663  0.42334309  0.83214842     0.34630
H1369       H  0.17641784  0.42414435  0.95600624     0.26420
H1370       H  0.02002439  0.51067003  0.89090593     0.32360
H1371       H  0.93895271  0.41121462  0.84524811     0.38270
H1372       H  0.18750062  0.34149239  0.94243265     0.32730
H1373       H  0.11508732  0.25211120  0.90756749     0.31600
H1374       H  0.06101729  0.23598808  0.87145885     0.33290
H1375       H  0.94968922  0.32503659  0.83257848     0.32250
H1376       H  0.11374680  0.36624754  0.99195748     0.36250
H1377       H  0.05126678  0.33804924  0.00360301     0.28980
H1378       H  0.14194519  0.41188120  0.78381741     0.33220
H1379       H  0.96581369  0.37946381  0.79559653     0.36070
H1380       H  0.13331954  0.26661192  0.87662148     0.28680
H1381       H  0.05128399  0.37771082  0.00872832     0.41550
H1382       H  0.11253804  0.49271804  0.89150206     0.31600
H1383       H  0.15168612  0.44826469  0.93639441     0.39220
H1384       H  0.98053211  0.30231487  0.84453812     0.31070
H1385       H  0.99687582  0.48318194  0.87362642     0.31140
H1386       H  0.10830056  0.39656010  0.76833241     0.31400
Zr1387     Zr  0.67786929  0.34555342  0.84062140     2.17510
O1388       O  0.68117612  0.36851400  0.78590085    -0.50950
O1389       O  0.61635217  0.33206296  0.83983510    -0.74160
O1390       O  0.67936253  0.29562186  0.80457953    -0.80940
O1391       O  0.67476143  0.43829719  0.86824305    -0.82690
O1392       O  0.72268781  0.26011062  0.81913039    -0.78310
O1393       O  0.65645750  0.40231930  0.82813490    -0.89950
O1394       O  0.60079469  0.31587991  0.89068915    -0.75910
O1395       O  0.67013484  0.29639491  0.87426929    -0.85400
O1396       O  0.65939285  0.36829564  0.89125082    -0.85090
O1397       O  0.73398684  0.31993934  0.84418764    -0.71850
O1398       O  0.72281573  0.38390051  0.85841649    -0.83980
Zr1399     Zr  0.75363179  0.32841062  0.94552695     2.26420
Zr1400     Zr  0.72584050  0.26940314  0.87753345     2.06270
Zr1401     Zr  0.70473734  0.40501855  0.91009361     2.10050
Zr1402     Zr  0.65220625  0.31960737  0.92493295     1.78760
O1403       O  0.72885519  0.46200841  0.90089289    -0.92790
O1404       O  0.62984124  0.26203879  0.93510322    -0.40600
O1405       O  0.69790396  0.35613386  0.94481953    -0.77230
O1406       O  0.70697452  0.29188517  0.92862310    -0.95910
O1407       O  0.77190904  0.30644915  0.89475508    -0.89220
O1408       O  0.75991233  0.37770880  0.91192763    -0.92060
C1409       C  0.59404150  0.32183179  0.86071684     1.01690
C1410       C  0.65936789  0.43199775  0.84124768     1.14620
C1411       C  0.70568044  0.27707580  0.79777782     1.05400
O1412       O  0.68539992  0.22168133  0.87377488    -0.94220
O1413       O  0.74486284  0.23359802  0.92332668    -0.89960
O1414       O  0.76697861  0.27008569  0.96124770    -0.83100
C1415       C  0.75900187  0.24008622  0.95091136     1.12040
O1416       O  0.78176972  0.37325396  0.80463713    -0.96190
Zr1417     Zr  0.77813281  0.35659532  0.86156988     1.88940
O1418       O  0.81714853  0.33352315  0.94305800    -0.72840
O1419       O  0.77345077  0.23198035  0.86216800    -0.52100
O1420       O  0.81572637  0.31718380  0.83223730    -0.96780
O1421       O  0.80344791  0.41357158  0.85460814    -0.54000
O1422       O  0.83025852  0.35509199  0.89335618    -0.73350
C1423       C  0.83863545  0.34501456  0.92177976     0.98990
O1424       O  0.74712811  0.31708900  0.00352098    -0.62180
O1425       O  0.65925669  0.42742074  0.94480287    -0.56980
O1426       O  0.76547069  0.37779002  0.97830792    -0.93660
O1427       O  0.73806095  0.42466182  0.95718526    -0.92090
O1428       O  0.61184354  0.35950605  0.95000992    -0.92440
O1429       O  0.64296135  0.30678469  0.98205018    -0.91230
C1430       C  0.75828584  0.40983540  0.97762638     1.17830
H1431       H  0.63796338  0.38074160  0.88912308     0.33770
H1432       H  0.70306616  0.27395291  0.94434668     0.44630
H1433       H  0.77767232  0.39304273  0.91955023     0.38150
H1434       H  0.74363823  0.31603194  0.82309433     0.34630
H1435       H  0.60486175  0.26537014  0.93876700     0.26420
H1436       H  0.76255225  0.21246620  0.85064846     0.32360
H1437       H  0.83857342  0.32847768  0.83223562     0.38270
H1438       H  0.58983378  0.34670929  0.95110072     0.32730
H1439       H  0.66796826  0.44997702  0.95234975     0.31600
H1440       H  0.71418847  0.47773059  0.91378009     0.33290
H1441       H  0.82832636  0.40930116  0.85121044     0.32250
H1442       H  0.66639182  0.30571363  0.99146552     0.36250
H1443       H  0.73237724  0.33588830  0.01187567     0.28980
H1444       H  0.65843303  0.36336515  0.77626283     0.33220
H1445       H  0.80661328  0.37605218  0.79995572     0.36070
H1446       H  0.64024092  0.43324245  0.92977013     0.28680
H1447       H  0.73211442  0.29656834  0.00508828     0.41550
H1448       H  0.67031016  0.22746567  0.85519752     0.31600
H1449       H  0.63125097  0.25022502  0.91389118     0.39220
H1450       H  0.80213201  0.42469169  0.87614264     0.31070
H1451       H  0.78593700  0.24483168  0.84510546     0.31140
H1452       H  0.69786017  0.35376840  0.77430905     0.31400
Zr1453     Zr  0.90128827  0.42752101  0.08160338     2.17510
O1454       O  0.90587565  0.40964869  0.02496614    -0.50950
O1455       O  0.90358513  0.36381525  0.08139503    -0.74160
O1456       O  0.95700933  0.44009036  0.05705637    -0.80940
O1457       O  0.80289342  0.44184864  0.07732291    -0.82690
O1458       O  0.99407684  0.46448751  0.09327747    -0.78310
O1459       O  0.85083066  0.43517644  0.04631146    -0.89950
O1460       O  0.90005885  0.34222933  0.13230722    -0.75910
O1461       O  0.93577767  0.41399790  0.12795893    -0.85400
O1462       O  0.86147487  0.40584975  0.12035082    -0.85090
O1463       O  0.92771172  0.48111507  0.09863439    -0.71850
O1464       O  0.86130115  0.47352849  0.09144430    -0.83980
Zr1465     Zr  0.88227315  0.49224568  0.19284963     2.26420
Zr1466     Zr  0.96227407  0.46727488  0.14561577     2.06270
Zr1467     Zr  0.82248073  0.45203014  0.13154362     2.10050
Zr1468     Zr  0.89526454  0.39293288  0.16683880     1.78760
O1469       O  0.77112057  0.48322837  0.11452873    -0.92790
O1470       O  0.94652999  0.36305372  0.18612265    -0.40600
O1471       O  0.85519422  0.43864531  0.17874203    -0.77230
O1472       O  0.92181038  0.44537190  0.18431174    -0.95910
O1473       O  0.92248668  0.51365471  0.15455529    -0.89220
O1474       O  0.84851624  0.50512105  0.14669531    -0.92060
C1475       C  0.90234896  0.33840045  0.10150980     1.01690
C1476       C  0.81807519  0.43831639  0.05014020     1.14620
C1477       C  0.98580566  0.45424844  0.06444876     1.05400
O1478       O  0.00673155  0.42496066  0.15779436    -0.94220
O1479       O  0.97767048  0.48257225  0.20322861    -0.89960
O1480       O  0.92977158  0.50512273  0.22708173    -0.83100
C1481       C  0.96128810  0.49613486  0.22758342     1.12040
O1482       O  0.89602578  0.53758622  0.05049878    -0.96190
Zr1483     Zr  0.88804589  0.52617564  0.10816294     1.88940
O1484       O  0.87641837  0.55557084  0.19536900    -0.72840
O1485       O  0.00448827  0.51358402  0.14534901    -0.52100
O1486       O  0.93676382  0.56481756  0.10043055    -0.96780
O1487       O  0.83852852  0.55447459  0.08336996    -0.54000
O1488       O  0.87605398  0.57462673  0.14329997    -0.73350
C1489       C  0.87374332  0.57956539  0.17389044     0.98990
O1490       O  0.87365682  0.47798599  0.24999324    -0.62180
O1491       O  0.78839271  0.40098107  0.14353730    -0.56980
O1492       O  0.82462698  0.50219794  0.20989269    -0.93660
O1493       O  0.78821104  0.47419717  0.17577590    -0.92090
O1494       O  0.84569471  0.35737887  0.18041153    -0.92440
O1495       O  0.89297768  0.37909075  0.22438131    -0.91230
C1496       C  0.79469997  0.49338934  0.20022128     1.17830
H1497       H  0.84911003  0.38603363  0.11235747     0.33770
H1498       H  0.93295969  0.43944607  0.20445740     0.44630
H1499       H  0.83127232  0.52244040  0.15098523     0.38150
H1500       H  0.94050312  0.49243308  0.08177330     0.34630
H1501       H  0.93919764  0.33884189  0.18901574     0.26420
H1502       H  0.02682712  0.50203686  0.14137140     0.32360
H1503       H  0.92649822  0.58809821  0.09892222     0.38270
H1504       H  0.85517449  0.33392862  0.18342690     0.32730
H1505       H  0.76587426  0.41002023  0.15089498     0.31600
H1506       H  0.75185848  0.46693939  0.11792723     0.33290
H1507       H  0.84322719  0.57942381  0.08541786     0.32250
H1508       H  0.87977248  0.39823878  0.23418808     0.36250
H1509       H  0.85277704  0.46339385  0.25063783     0.28980
H1510       H  0.92600094  0.39402779  0.02375389     0.33220
H1511       H  0.89612394  0.56295685  0.04823620     0.36070
H1512       H  0.78349514  0.39059201  0.12211829     0.28680
H1513       H  0.89244863  0.46177725  0.25555517     0.41550
H1514       H  0.00809607  0.41037790  0.13816257     0.31600
H1515       H  0.96220649  0.36244386  0.16721973     0.39220
H1516       H  0.81913622  0.55018962  0.09839038     0.31070
H1517       H  0.99973747  0.52659174  0.12519277     0.31140
H1518       H  0.91268799  0.43041371  0.01260418     0.31400
Zr1519     Zr  0.86068967  0.84108176  0.09073965     2.17510
O1520       O  0.88344286  0.83576538  0.03610570    -0.50950
O1521       O  0.84783398  0.90270029  0.08906817    -0.74160
O1522       O  0.80922386  0.84061064  0.05682613    -0.80940
O1523       O  0.95340358  0.84591004  0.11627214    -0.82690
O1524       O  0.77498126  0.79642816  0.07070042    -0.78310
O1525       O  0.91603471  0.86414548  0.07722688    -0.89950
O1526       O  0.83337050  0.91944197  0.14004083    -0.75910
O1527       O  0.81216184  0.84962552  0.12488551    -0.85400
O1528       O  0.88443644  0.86044856  0.14063894    -0.85090
O1529       O  0.83520772  0.78500746  0.09529737    -0.71850
O1530       O  0.89937232  0.79627685  0.10851465    -0.83980
Zr1531     Zr  0.84539276  0.76790664  0.19695108     2.26420
Zr1532     Zr  0.78517892  0.79406052  0.12908371     2.06270
Zr1533     Zr  0.92173415  0.81552819  0.15935756     2.10050
Zr1534     Zr  0.83636418  0.86849564  0.17486493     1.78760
O1535       O  0.97893118  0.79218991  0.14926088    -0.92790
O1536       O  0.77907027  0.89188718  0.18459782    -0.40600
O1537       O  0.87349448  0.82330591  0.19484662    -0.77230
O1538       O  0.80843947  0.81402164  0.17957914    -0.95910
O1539       O  0.82246370  0.74836658  0.14693113    -0.89220
O1540       O  0.89407248  0.76060316  0.16268438    -0.92060
C1541       C  0.83867343  0.92556625  0.10985671     1.01690
C1542       C  0.94604590  0.86153031  0.08954117     1.14620
C1543       C  0.79176626  0.81380654  0.04954915     1.05400
O1544       O  0.73737301  0.83448663  0.12534430    -0.94220
O1545       O  0.75011506  0.77578530  0.17545554    -0.89960
O1546       O  0.78725806  0.75511209  0.21362067    -0.83100
C1547       C  0.75706011  0.76248102  0.20329341     1.12040
O1548       O  0.88816379  0.73594722  0.05627843    -0.96190
Zr1549     Zr  0.87202714  0.74104452  0.11323219     1.88940
O1550       O  0.85030268  0.70447124  0.19640156    -0.72840
O1551       O  0.74759936  0.74627403  0.11472756    -0.52100
O1552       O  0.83213490  0.70291683  0.08515217    -0.96780
O1553       O  0.92874924  0.71504089  0.10615112    -0.54000
O1554       O  0.87083429  0.68982026  0.14670539    -0.73350
C1555       C  0.86135765  0.68231766  0.17556960     0.98990
O1556       O  0.83532867  0.77599397  0.25494317    -0.62180
O1557       O  0.94459974  0.86098011  0.19379761    -0.56980
O1558       O  0.89535080  0.75618705  0.22899250    -0.93660
O1559       O  0.94227994  0.78168270  0.20597952    -0.92090
O1560       O  0.87651447  0.90878314  0.19964688    -0.92440
O1561       O  0.82356886  0.87827366  0.23190089    -0.91230
C1562       C  0.92758491  0.76218819  0.22712726     1.17830
H1563       H  0.89679792  0.88183736  0.13803806     0.33770
H1564       H  0.79068086  0.81827399  0.19539695     0.44630
H1565       H  0.90938924  0.74279036  0.17025762     0.38150
H1566       H  0.83088002  0.77509118  0.07438064     0.34630
H1567       H  0.78277513  0.91681577  0.18814096     0.26420
H1568       H  0.72791812  0.75700521  0.10326601     0.32360
H1569       H  0.84325511  0.67998592  0.08580335     0.38270
H1570       H  0.86376237  0.93083146  0.20071712     0.32730
H1571       H  0.96700835  0.85201150  0.20155117     0.31600
H1572       H  0.99469623  0.80721724  0.16172048     0.33290
H1573       H  0.92425225  0.69011483  0.10352947     0.32250
H1574       H  0.82254561  0.85495467  0.24151813     0.36250
H1575       H  0.85418410  0.79114521  0.26249597     0.28980
H1576       H  0.87997028  0.85875579  0.02636215     0.33220
H1577       H  0.89051839  0.71097966  0.05202626     0.36070
H1578       H  0.95075261  0.87973206  0.17861909     0.28680
H1579       H  0.81465330  0.79082466  0.25654075     0.41550
H1580       H  0.74297034  0.84938166  0.10659772     0.31600
H1581       H  0.76732405  0.89054016  0.16333357     0.39220
H1582       H  0.94030607  0.71695064  0.12745376     0.31070
H1583       H  0.76025738  0.73353826  0.09769728     0.31140
H1584       H  0.86751841  0.82029948  0.02450533     0.31400
C1585       C  0.86775809  0.61500607  0.18371854    -0.12900
C1586       C  0.86363915  0.64607541  0.18413804    -0.14450
C1587       C  0.77655791  0.42971601  0.00093842    -0.12900
C1588       C  0.79623625  0.43697644  0.02233044    -0.14450
C1589       C  0.01743410  0.46178225  0.00886438    -0.12900
C1590       C  0.00767330  0.46165570  0.03685844    -0.14450
C1591       C  0.90613741  0.35148716  0.92801269    -0.12900
C1592       C  0.87512952  0.34718281  0.92915768    -0.14450
C1593       C  0.09555037  0.26266012  0.75333295    -0.12900
C1594       C  0.09002207  0.28214781  0.77541953    -0.14450
C1595       C  0.06543466  0.49003939  0.78796253    -0.12900
C1596       C  0.06420044  0.49954870  0.75983478    -0.14450
C1597       C  0.17478048  0.35831478  0.67706558    -0.12900
C1598       C  0.17040005  0.38926855  0.67567896    -0.14450
C1599       C  0.25488965  0.57843812  0.49896666    -0.12900
C1600       C  0.23451025  0.57271196  0.52026860    -0.14450
C1601       C  0.97721926  0.51130071  0.28714583    -0.12900
C1602       C  0.97689269  0.50118872  0.25918143    -0.14450
C1603       C  0.95416574  0.72250077  0.27064577    -0.12900
C1604       C  0.94764027  0.74292532  0.24963989    -0.14450
C1605       C  0.01776967  0.54711294  0.51041380    -0.12900
C1606       C  0.02727165  0.54805819  0.53862861    -0.14450
C1607       C  0.13067796  0.65550318  0.43205228    -0.12900
C1608       C  0.16166246  0.66022381  0.43238020    -0.14450
C1609       C  0.71247344  0.74521584  0.24769303    -0.12900
C1610       C  0.72979692  0.75612488  0.22581238    -0.14450
C1611       C  0.78895645  0.61679731  0.35626794    -0.16050
C1612       C  0.81828784  0.61691288  0.33826621    -0.31230
H1613       H  0.79070852  0.61491783  0.38248127     0.12970
H1614       H  0.81611699  0.61753713  0.31201410     0.13540
C1615       C  0.76583839  0.50853217  0.21725641    -0.16050
C1616       C  0.76926242  0.53999692  0.23032143    -0.31230
H1617       H  0.74103894  0.49561677  0.21629818     0.12970
H1618       H  0.79353064  0.55387058  0.22883858     0.13540
C1619       C  0.50581052  0.68250712  0.33669678    -0.12900
C1620       C  0.47642188  0.68483517  0.34662671    -0.14450
C1621       C  0.05869776  0.75353872  0.47087480    -0.16050
C1622       C  0.02534684  0.75589753  0.46256390    -0.31230
H1623       H  0.07312827  0.72988878  0.46695509     0.12970
H1624       H  0.01123762  0.78001878  0.46400670     0.13540
C1625       C  0.27571698  0.79476129  0.47239058    -0.12900
C1626       C  0.26476834  0.81220163  0.49400428    -0.14450
C1627       C  0.13746717  0.72315543  0.58134927    -0.16050
C1628       C  0.12451720  0.70859719  0.60820367    -0.31230
H1629       H  0.14880070  0.70618950  0.56330662     0.12970
H1630       H  0.11420692  0.72512494  0.62709133     0.13540
C1631       C  0.19722385  0.01218655  0.59056258    -0.12900
C1632       C  0.19950776  0.04131826  0.60102968    -0.14450
C1633       C  0.76542204  0.21260076  0.97328611    -0.12900
C1634       C  0.77592962  0.19535419  0.99547224    -0.14450
C1635       C  0.90284432  0.27319342  0.10529684    -0.16050
C1636       C  0.90244370  0.30271361  0.08756071    -0.31230
H1637       H  0.90489006  0.27476543  0.13150845     0.12970
H1638       H  0.90163063  0.30077826  0.06130035     0.13540
C1639       C  0.01130523  0.25027418  0.96747434    -0.16050
C1640       C  0.97914769  0.25310346  0.97910399    -0.31230
H1641       H  0.02486717  0.22579100  0.96738981     0.12970
H1642       H  0.96485108  0.27707778  0.97690492     0.13540
C1643       C  0.83555110  0.96090037  0.09861469    -0.12900
C1644       C  0.83823070  0.99010557  0.08828625    -0.14450
C1645       C  0.21864407  0.21771239  0.49523479    -0.12900
C1646       C  0.23230705  0.20249759  0.51724155    -0.14450
C1647       C  0.14479964  0.04680571  0.44375904    -0.12900
C1648       C  0.13539909  0.02326580  0.46063162    -0.14450
C1649       C  0.37483325  0.15954596  0.33295925    -0.12900
C1650       C  0.40582792  0.15504074  0.33355244    -0.14450
C1651       C  0.31781638  0.71913436  0.27004848    -0.12900
C1652       C  0.30391164  0.70407716  0.24810850    -0.14450
C1653       C  0.50268976  0.62090635  0.20602413    -0.12900
C1654       C  0.47851139  0.63007799  0.18987571    -0.14450
C1655       C  0.50774455  0.04798276  0.22770277    -0.12900
C1656       C  0.51751925  0.04723923  0.25583579    -0.14450
C1657       C  0.27968004  0.07873639  0.26395224    -0.12900
C1658       C  0.29964992  0.07338295  0.24217461    -0.14450
C1659       C  0.36592858  0.89033171  0.08848575    -0.12900
C1660       C  0.36145384  0.85938730  0.08740166    -0.14450
C1661       C  0.58285900  0.22276196  0.49560585    -0.12900
C1662       C  0.58944919  0.24290112  0.51687818    -0.14450
C1663       C  0.73768322  0.29757679  0.74531945    -0.12900
C1664       C  0.72310730  0.28422153  0.76788748    -0.14450
C1665       C  0.56026565  0.00118902  0.50641296    -0.12900
C1666       C  0.55987868  0.01146513  0.47850872    -0.14450
C1667       C  0.67380253  0.14564186  0.58153411    -0.12900
C1668       C  0.66949628  0.11461717  0.58200716    -0.14450
C1669       C  0.81465258  0.78306785  0.99728228    -0.12900
C1670       C  0.80026349  0.79658342  0.01986409    -0.14450
C1671       C  0.75985484  0.92982148  0.76517800    -0.12900
C1672       C  0.74021894  0.93700255  0.74371679    -0.14450
C1673       C  0.89236970  0.95959584  0.94271753    -0.12900
C1674       C  0.90101600  0.98445090  0.95821783    -0.14450
C1675       C  0.47326789  0.98969769  0.97774829    -0.12900
C1676       C  0.47451933  0.99926155  0.00586516    -0.14450
C1677       C  0.44115842  0.76261146  0.01227157    -0.12900
C1678       C  0.44699394  0.78193937  0.99016460    -0.14450
C1679       C  0.51938246  0.96119983  0.75640789    -0.12900
C1680       C  0.52911673  0.96096538  0.72840668    -0.14450
C1681       C  0.63067123  0.85061722  0.83652386    -0.12900
C1682       C  0.66165769  0.84628072  0.83539737    -0.14450
C1683       C  0.39211069  0.54758745  0.32155272    -0.12900
C1684       C  0.40135611  0.52381305  0.30495828    -0.14450
C1685       C  0.53686123  0.46279716  0.25250615    -0.12900
C1686       C  0.55714931  0.48315405  0.26267813    -0.14450
C1687       C  0.27311386  0.31193195  0.27168885    -0.12900
C1688       C  0.26264230  0.29429982  0.29341525    -0.14450
C1689       C  0.39955155  0.22345388  0.18470501    -0.16050
C1690       C  0.41156612  0.20924289  0.15728938    -0.31230
H1691       H  0.38908072  0.20625227  0.20300614     0.12970
H1692       H  0.42100692  0.22605262  0.13821748     0.13540
C1693       C  0.50954795  0.25634215  0.30421617    -0.16050
C1694       C  0.47606832  0.25396546  0.29633654    -0.31230
H1695       H  0.52361059  0.28045164  0.30253642     0.12970
H1696       H  0.46174900  0.23030276  0.30043407     0.13540
C1697       C  0.33908511  0.51339627  0.17564065    -0.12900
C1698       C  0.33684770  0.54260403  0.16526434    -0.14450
C1699       C  0.99898628  0.96272629  0.51374028    -0.12900
C1700       C  0.97892459  0.98297633  0.50298016    -0.14450
C1701       C  0.05744309  0.12939505  0.57584344    -0.12900
C1702       C  0.03342336  0.12029635  0.55946177    -0.14450
C1703       C  0.82427351  0.24520066  0.51720076    -0.12900
C1704       C  0.80709199  0.25603116  0.53920765    -0.14450
C1705       C  0.74755349  0.11698542  0.40871066    -0.16050
C1706       C  0.71832662  0.11702397  0.42686867    -0.31230
H1707       H  0.74567915  0.11520901  0.38250016     0.12970
H1708       H  0.72063394  0.11753859  0.45311220     0.13540
C1709       C  0.77119328  0.00913222  0.54888389    -0.16050
C1710       C  0.76747102  0.04034907  0.53533263    -0.31230
H1711       H  0.79611977  0.99644299  0.55006489     0.12970
H1712       H  0.74308164  0.05406906  0.53660339     0.13540
C1713       C  0.06016189  0.18441051  0.41837543    -0.12900
C1714       C  0.03079098  0.18206721  0.42833007    -0.14450
C1715       C  0.55759689  0.75304844  0.78565744    -0.16050
C1716       C  0.52566233  0.74994874  0.79780322    -0.31230
H1717       H  0.57171873  0.77711943  0.78765505     0.12970
H1718       H  0.51236133  0.72534663  0.79813310     0.13540
C1719       C  0.76178502  0.69522969  0.76961607    -0.12900
C1720       C  0.77236633  0.71253159  0.79169276    -0.14450
C1721       C  0.63474650  0.77279145  0.65947804    -0.16050
C1722       C  0.63490287  0.80220857  0.67734053    -0.31230
H1723       H  0.63286936  0.77445649  0.63325923     0.12970
H1724       H  0.63553919  0.80015185  0.70359931     0.13540
C1725       C  0.70151365  0.45931271  0.66994318    -0.12900
C1726       C  0.69905277  0.48879656  0.67963125    -0.14450
C1727       C  0.64523702  0.46047217  0.82353633    -0.12900
C1728       C  0.63654357  0.48515100  0.80781661    -0.14450
C1729       C  0.48159036  0.52205715  0.76957481    -0.12900
C1730       C  0.50128198  0.54155413  0.75716731    -0.14450
C1731       C  0.32910431  0.25692869  0.73946009    -0.12900
C1732       C  0.31088562  0.24526332  0.71865393    -0.14450
C1733       C  0.24107579  0.38067112  0.83416006    -0.16050
C1734       C  0.22605237  0.39522116  0.86009034    -0.31230
H1735       H  0.22443934  0.36782091  0.81675639     0.12970
H1736       H  0.24226896  0.40724150  0.87831627     0.13540
C1737       C  0.27050872  0.46611407  0.72639429    -0.16050
C1738       C  0.27353595  0.49678757  0.71194144    -0.31230
H1739       H  0.24617307  0.45225906  0.72631395     0.12970
H1740       H  0.29835869  0.50946533  0.70958106     0.13540
C1741       C  0.56505918  0.37593769  0.69760038    -0.12900
C1742       C  0.54140490  0.38567685  0.71422499    -0.14450
C1743       C  0.52931696  0.32079228  0.83958994    -0.12900
C1744       C  0.55859705  0.31821207  0.84983202    -0.14450
C1745       C  0.05799753  0.02102055  0.00190915    -0.12900
C1746       C  0.03757478  0.04120366  0.01225936    -0.14450
C1747       C  0.99703512  0.88588665  0.05432493    -0.12900
C1748       C  0.97338008  0.87644891  0.07095962    -0.14450
C1749       C  0.22597205  0.74715776  0.04638725    -0.12900
C1750       C  0.20835638  0.75741918  0.02448369    -0.14450
C1751       C  0.29747758  0.88222929  0.93421968    -0.16050
C1752       C  0.31169034  0.89484910  0.90703212    -0.31230
H1753       H  0.31467272  0.87120134  0.95226576     0.12970
H1754       H  0.29487293  0.90493641  0.88823190     0.13540
C1755       C  0.26731562  0.96004987  0.04563488    -0.16050
C1756       C  0.26515227  0.99359867  0.05318376    -0.31230
H1757       H  0.29088600  0.94557817  0.04989337     0.12970
H1758       H  0.24112816  0.00782764  0.05125219     0.13540
C1759       C  0.00652891  0.82276748  0.92820149    -0.12900
C1760       C  0.97709410  0.82035357  0.91834589    -0.14450
loop_ 
_geom_bond_atom_site_label_1 
_geom_bond_atom_site_label_2 
_geom_bond_distance 
_geom_bond_site_symmetry_2 
_ccdc_geom_bond_type 
Zr1           O2   2.437       .  S
Zr1           O3   2.400   1_554  S
Zr1           O4   2.416   1_554  S
Zr1           O7   2.420       .  S
Zr1           O9   2.387   1_554  S
Zr1          O10   2.374   1_554  S
Zr1          O11   2.400       .  S
Zr1          O12   2.390       .  S
O2           H58   0.990       .  S
O2           H66   0.990       .  S
O3           C23   1.277       .  A
O4           C25   1.277   1_556  A
O5          Zr15   2.371       .  S
O5           C24   1.276       .  A
O6          Zr14   2.443       .  S
O6           C25   1.282   1_556  A
O7           C24   1.283       .  A
O8          Zr16   2.515       .  S
O8           C23   1.299       .  A
O9          Zr14   2.409       .  S
O9          Zr16   2.372       .  S
O10         Zr15   2.379   1_556  S
O10         Zr16   2.349       .  S
O10          H45   0.965       .  S
O11         Zr14   2.430   1_554  S
O11         Zr31   2.352       .  S
O11          H48   0.964       .  S
O12         Zr15   2.390       .  S
O12         Zr31   2.377       .  S
Zr13         O38   2.439       .  S
Zr13         O32   2.466   1_556  S
Zr13         O40   2.422       .  S
Zr13         O28   2.392       .  S
Zr13         O19   2.410       .  S
Zr13         O20   2.421       .  S
Zr13         O21   2.374   1_556  S
Zr13         O22   2.367   1_556  S
Zr14         O33   2.438       .  S
Zr14         O26   2.434       .  S
Zr14         O27   2.494       .  S
Zr14         O20   2.393       .  S
Zr14         O21   2.385   1_556  S
Zr15         O17   2.436       .  S
Zr15         O39   2.436   1_554  S
Zr15         O41   2.402       .  S
Zr15         O19   2.380   1_554  S
Zr15         O22   2.371       .  S
Zr16         O42   2.435       .  S
Zr16         O43   2.436       .  S
Zr16         O18   2.436       .  S
Zr16         O19   2.429       .  S
Zr16         O20   2.434       .  S
O17          H54   0.990   1_565  S
O18          H49   0.990       .  S
O18          H63   0.990       .  S
O20          H46   0.966       .  S
O21         Zr31   2.390       .  S
O22         Zr31   2.361       .  S
O22          H47   0.965       .  S
C23        C1751   1.499       .  S
C24        C1755   1.448       .  S
C25        C1750   1.424       .  S
O26          H62   0.990       .  S
O27          C29   1.295       .  A
O28          C29   1.275       .  A
C29        C1759   1.450       .  S
O30         Zr31   2.440       .  S
O30          H59   0.990       .  S
Zr31         O34   2.437       .  S
Zr31         O35   2.441       .  S
Zr31         O36   2.378       .  S
O32          C37   1.290       .  A
O33          H50   0.990       .  S
O33          H65   0.990   1_556  S
O34          H51   0.990       .  S
O35          H55   0.990       .  S
O35          H64   0.989       .  S
O36          C37   1.272       .  A
C37        C1747   1.429   1_455  S
O38          H57   0.990       .  S
O38          H61   0.990       .  S
O39          H53   0.990   1_565  S
O39          H60   0.990       .  S
O40          C44   1.281       .  A
O41          C44   1.276   1_554  A
O42          H52   0.990       .  S
O43          H56   0.990       .  S
C44        C1745   1.414   1_566  S
Zr67         O68   2.439       .  S
Zr67         O69   2.399       .  S
Zr67         O70   2.400       .  S
Zr67         O73   2.405       .  S
Zr67         O75   2.383       .  S
Zr67         O76   2.372       .  S
Zr67         O77   2.396       .  S
Zr67         O78   2.386       .  S
O68         H124   0.990       .  S
O68         H132   0.990       .  S
O69          C89   1.277       .  A
O70          C91   1.278       .  A
O71         Zr81   2.386       .  S
O71          C90   1.278       .  A
O72         Zr80   2.455       .  S
O72          C91   1.287       .  A
O73          C90   1.279       .  A
O74         Zr82   2.515       .  S
O74          C89   1.299       .  A
O75         Zr80   2.409       .  S
O75         Zr82   2.375       .  S
O76         Zr81   2.381       .  S
O76         Zr82   2.349       .  S
O76         H111   0.965       .  S
O77         Zr80   2.418       .  S
O77         Zr97   2.355       .  S
O77         H114   0.964       .  S
O78         Zr81   2.387       .  S
O78         Zr97   2.380       .  S
Zr79        O104   2.440       .  S
Zr79         O98   2.473       .  S
Zr79        O106   2.419       .  S
Zr79         O94   2.392       .  S
Zr79         O85   2.413       .  S
Zr79         O86   2.420       .  S
Zr79         O87   2.372       .  S
Zr79         O88   2.368       .  S
Zr80         O99   2.437       .  S
Zr80         O92   2.434       .  S
Zr80         O93   2.495       .  S
Zr80         O86   2.393       .  S
Zr80         O87   2.386       .  S
Zr81         O83   2.436       .  S
Zr81        O105   2.436       .  S
Zr81        O107   2.398       .  S
Zr81         O85   2.385       .  S
Zr81         O88   2.376       .  S
Zr82        O108   2.436       .  S
Zr82        O109   2.436       .  S
Zr82         O84   2.436       .  S
Zr82         O85   2.429       .  S
Zr82         O86   2.432       .  S
O83         H120   0.990       .  S
O84         H115   0.990       .  S
O84         H129   0.990       .  S
O86         H112   0.966       .  S
O87         Zr97   2.389       .  S
O88         Zr97   2.359       .  S
O88         H113   0.964       .  S
C89        C1733   1.500       .  S
C90        C1737   1.443       .  S
C91        C1731   1.422       .  S
O92         H128   0.990       .  S
O93          C95   1.295       .  A
O94          C95   1.275       .  A
C95        C1743   1.450       .  S
O96         Zr97   2.439       .  S
O96         H125   0.990       .  S
Zr97        O100   2.437       .  S
Zr97        O101   2.442       .  S
Zr97        O102   2.383       .  S
O98         C103   1.291       .  A
O99         H116   0.990       .  S
O99         H131   0.990       .  S
O100        H117   0.990       .  S
O101        H121   0.990       .  S
O101        H130   0.989       .  S
O102        C103   1.273       .  A
C103       C1742   1.434       .  S
O104        H123   0.990       .  S
O104        H127   0.990       .  S
O105        H119   0.990       .  S
O105        H126   0.990       .  S
O106        C110   1.281       .  A
O107        C110   1.276       .  A
O108        H118   0.990       .  S
O109        H122   0.990       .  S
C110       C1729   1.410       .  S
Zr133       O134   2.440       .  S
Zr133       O135   2.431       .  S
Zr133       O136   2.423       .  S
Zr133       O139   2.420       .  S
Zr133       O141   2.389       .  S
Zr133       O142   2.373       .  S
Zr133       O143   2.407       .  S
Zr133       O144   2.398       .  S
O134        H190   0.990       .  S
O134        H198   0.990       .  S
O135        C155   1.283       .  A
O136        C157   1.279       .  A
O137       Zr147   2.377       .  S
O137        C156   1.276       .  A
O138       Zr146   2.453       .  S
O138        C157   1.286       .  A
O139        C156   1.282       .  A
O140       Zr148   2.483       .  S
O140        C155   1.293       .  A
O141       Zr146   2.411       .  S
O141       Zr148   2.378       .  S
O142       Zr147   2.382       .  S
O142       Zr148   2.358       .  S
O142        H177   0.966       .  S
O143       Zr146   2.427       .  S
O143       Zr163   2.353       .  S
O143        H180   0.963       .  S
O144       Zr147   2.389       .  S
O144       Zr163   2.391       .  S
Zr145       O170   2.439       .  S
Zr145       O164   2.450       .  S
Zr145       O172   2.424       .  S
Zr145       O160   2.393       .  S
Zr145       O151   2.405       .  S
Zr145       O152   2.415       .  S
Zr145       O153   2.377       .  S
Zr145       O154   2.368       .  S
Zr146       O165   2.437       .  S
Zr146       O158   2.434       .  S
Zr146       O159   2.498       .  S
Zr146       O152   2.394       .  S
Zr146       O153   2.388       .  S
Zr147       O149   2.436       .  S
Zr147       O171   2.436       .  S
Zr147       O173   2.398       .  S
Zr147       O151   2.383       .  S
Zr147       O154   2.375       .  S
Zr148       O174   2.435       .  S
Zr148       O175   2.435       .  S
Zr148       O150   2.436       .  S
Zr148       O151   2.422       .  S
Zr148       O152   2.419       .  S
O149        H186   0.990       .  S
O150        H181   0.990       .  S
O150        H195   0.990       .  S
O152        H178   0.966       .  S
O153       Zr163   2.385       .  S
O154       Zr163   2.352       .  S
O154        H179   0.964       .  S
C155       C1721   1.502       .  S
C156       C1715   1.451       .  S
C157       C1719   1.429       .  S
O158        H194   0.990       .  S
O159        C161   1.296       .  A
O160        C161   1.276       .  A
C161       C1726   1.451       .  S
O162       Zr163   2.440       .  S
O162        H191   0.990       .  S
Zr163       O166   2.437       .  S
Zr163       O167   2.442       .  S
Zr163       O168   2.403       .  S
O164        C169   1.286       .  A
O165        H182   0.990       .  S
O165        H197   0.990       .  S
O166        H183   0.990       .  S
O167        H187   0.990       .  S
O167        H196   0.989       .  S
O168        C169   1.277       .  A
C169       C1728   1.433       .  S
O170        H189   0.990       .  S
O170        H193   0.990       .  S
O171        H185   0.990       .  S
O171        H192   0.990       .  S
O172        C176   1.282       .  A
O173        C176   1.275       .  A
O174        H184   0.990       .  S
O175        H188   0.990       .  S
C176       C1730   1.411       .  S
Zr199       O200   2.440       .  S
Zr199       O201   2.423       .  S
Zr199       O202   2.423       .  S
Zr199       O205   2.419       .  S
Zr199       O207   2.388       .  S
Zr199       O208   2.374       .  S
Zr199       O209   2.403       .  S
Zr199       O210   2.395       .  S
O200        H256   0.990       .  S
O200        H264   0.990       .  S
O201        C221   1.282       .  A
O202        C223   1.280       .  A
O203       Zr213   2.376       .  S
O203        C222   1.276       .  A
O204       Zr212   2.447       .  S
O204        C223   1.285       .  A
O205        C222   1.282       .  A
O206       Zr214   2.485       .  S
O206        C221   1.293       .  A
O207       Zr212   2.410       .  S
O207       Zr214   2.377       .  S
O208       Zr213   2.382       .  S
O208       Zr214   2.357       .  S
O208        H243   0.966       .  S
O209       Zr212   2.426       .  S
O209       Zr229   2.354       .  S
O209        H246   0.963       .  S
O210       Zr213   2.389       .  S
O210       Zr229   2.385       .  S
Zr211       O236   2.440       .  S
Zr211       O230   2.457   1_655  S
Zr211       O238   2.420       .  S
Zr211       O226   2.393       .  S
Zr211       O217   2.406       .  S
Zr211       O218   2.415       .  S
Zr211       O219   2.374       .  S
Zr211       O220   2.368       .  S
Zr212       O231   2.437       .  S
Zr212       O224   2.434       .  S
Zr212       O225   2.494       .  S
Zr212       O218   2.392       .  S
Zr212       O219   2.388       .  S
Zr213       O215   2.436       .  S
Zr213       O237   2.436       .  S
Zr213       O239   2.399       .  S
Zr213       O217   2.382       .  S
Zr213       O220   2.375       .  S
Zr214       O240   2.435       .  S
Zr214       O241   2.435       .  S
Zr214       O216   2.436       .  S
Zr214       O217   2.421       .  S
Zr214       O218   2.419       .  S
O215        H252   0.990   1_545  S
O216        H247   0.990       .  S
O216        H261   0.990       .  S
O218        H244   0.966       .  S
O219       Zr229   2.387       .  S
O220       Zr229   2.357       .  S
O220        H245   0.964       .  S
C221       C1705   1.500       .  S
C222       C1710   1.450       .  S
C223       C1703   1.427       .  S
O224        H260   0.990       .  S
O225        C227   1.295       .  A
O226        C227   1.276       .  A
C227       C1714   1.449   1_655  S
O228       Zr229   2.440       .  S
O228        H257   0.990       .  S
Zr229       O232   2.437       .  S
Zr229       O233   2.442       .  S
Zr229       O234   2.393       .  S
O230        C235   1.288       .  A
O231        H248   0.990       .  S
O231        H263   0.990       .  S
O232        H249   0.990       .  S
O233        H253   0.990       .  S
O233        H262   0.989       .  S
O234        C235   1.275   1_655  A
C235       C1702   1.432       .  S
O236        H255   0.990       .  S
O236        H259   0.990       .  S
O237        H251   0.990   1_545  S
O237        H258   0.990       .  S
O238        C242   1.281       .  A
O239        C242   1.276       .  A
O240        H250   0.990       .  S
O241        H254   0.990       .  S
C242       C1700   1.411   1_545  S
Zr265       O266   2.437       .  S
Zr265       O267   2.398       .  S
Zr265       O268   2.416       .  S
Zr265       O271   2.422       .  S
Zr265       O273   2.386       .  S
Zr265       O274   2.374       .  S
Zr265       O275   2.400       .  S
Zr265       O276   2.390       .  S
O266        H322   0.990       .  S
O266        H330   0.990       .  S
O267        C287   1.277       .  A
O268        C289   1.276       .  A
O269       Zr279   2.369       .  S
O269        C288   1.275       .  A
O270       Zr278   2.438       .  S
O270        C289   1.281       .  A
O271        C288   1.283       .  A
O272       Zr280   2.517       .  S
O272        C287   1.300       .  A
O273       Zr278   2.408       .  S
O273       Zr280   2.370       .  S
O274       Zr279   2.378       .  S
O274       Zr280   2.349       .  S
O274        H309   0.965       .  S
O275       Zr278   2.430       .  S
O275       Zr295   2.353       .  S
O275        H312   0.964       .  S
O276       Zr279   2.390       .  S
O276       Zr295   2.377       .  S
Zr277       O302   2.440       .  S
Zr277       O296   2.468       .  S
Zr277       O304   2.420       .  S
Zr277       O292   2.393       .  S
Zr277       O283   2.410       .  S
Zr277       O284   2.421       .  S
Zr277       O285   2.374       .  S
Zr277       O286   2.366       .  S
Zr278       O297   2.438       .  S
Zr278       O290   2.434       .  S
Zr278       O291   2.490       .  S
Zr278       O284   2.391       .  S
Zr278       O285   2.385       .  S
Zr279       O281   2.436       .  S
Zr279       O303   2.436       .  S
Zr279       O305   2.399       .  S
Zr279       O283   2.380       .  S
Zr279       O286   2.370       .  S
Zr280       O306   2.435       .  S
Zr280       O307   2.436       .  S
Zr280       O282   2.436       .  S
Zr280       O283   2.429       .  S
Zr280       O284   2.434       .  S
O281        H318   0.990       .  S
O282        H313   0.990       .  S
O282        H327   0.990       .  S
O284        H310   0.966       .  S
O285       Zr295   2.391       .  S
O286       Zr295   2.362       .  S
O286        H311   0.965       .  S
C287       C1689   1.499       .  S
C288       C1694   1.448       .  S
C289       C1687   1.421       .  S
O290        H326   0.990       .  S
O291        C293   1.294       .  A
O292        C293   1.275       .  A
C293       C1697   1.449       .  S
O294       Zr295   2.440       .  S
O294        H323   0.990       .  S
Zr295       O298   2.437       .  S
Zr295       O299   2.441       .  S
Zr295       O300   2.378       .  S
O296        C301   1.290       .  A
O297        H314   0.990       .  S
O297        H329   0.990       .  S
O298        H315   0.990       .  S
O299        H319   0.990       .  S
O299        H328   0.989       .  S
O300        C301   1.272       .  A
C301       C1684   1.430       .  S
O302        H321   0.990       .  S
O302        H325   0.990       .  S
O303        H317   0.990       .  S
O303        H324   0.990       .  S
O304        C308   1.281       .  A
O305        C308   1.275       .  A
O306        H316   0.990       .  S
O307        H320   0.990       .  S
C308       C1685   1.412       .  S
Zr331       O332   2.444       .  S
Zr331       O333   2.505       .  S
Zr331       O334   2.454       .  S
Zr331       O337   2.465       .  S
Zr331       O339   2.391       .  S
Zr331       O340   2.382       .  S
Zr331       O341   2.431       .  S
Zr331       O342   2.410       .  S
O332        H388   0.990       .  S
O332        H396   0.991       .  S
O333        C353   1.297       .  A
O334        C355   1.286       .  A
O335       Zr345   2.401       .  S
O335        C354   1.276       .  A
O336       Zr344   2.494       .  S
O336        C355   1.296       .  A
O337        C354   1.289       .  A
O338       Zr346   2.406       .  S
O338        C353   1.276       .  A
O339       Zr344   2.421       .  S
O339       Zr346   2.397       .  S
O340       Zr345   2.395       .  S
O340       Zr346   2.380       .  S
O340        H375   0.966       .  S
O341       Zr344   2.413       .  S
O341       Zr361   2.369       .  S
O341        H378   0.961       .  S
O342       Zr345   2.386       .  S
O342       Zr361   2.402       .  S
Zr343       O368   2.445       .  S
Zr343       O362   2.454       .  S
Zr343       O370   2.380       .  S
Zr343       O358   2.382       .  S
Zr343       O349   2.400       .  S
Zr343       O350   2.399       .  S
Zr343       O351   2.375       .  S
Zr343       O352   2.367       .  S
Zr344       O363   2.435       .  S
Zr344       O356   2.435       .  S
Zr344       O357   2.511       .  S
Zr344       O350   2.403       .  S
Zr344       O351   2.405       .  S
Zr345       O347   2.436       .  S
Zr345       O369   2.436       .  S
Zr345       O371   2.419       .  S
Zr345       O349   2.384       .  S
Zr345       O352   2.384       .  S
Zr346       O372   2.436       .  S
Zr346       O373   2.436       .  S
Zr346       O348   2.437       .  S
Zr346       O349   2.401       .  S
Zr346       O350   2.378       .  S
O347        H384   0.990       .  S
O348        H379   0.990       .  S
O348        H393   0.990       .  S
O350        H376   0.964       .  S
O351       Zr361   2.380       .  S
O352       Zr361   2.352       .  S
O352        H377   0.966       .  S
C353       C1752   1.500       .  S
C354       C1678   1.431       .  S
C355       C1675   1.456       .  S
O356        H392   0.990       .  S
O357        C359   1.299       .  A
O358        C359   1.274       .  A
C359       C1679   1.445       .  S
O360       Zr361   2.440       .  S
O360        H389   0.990       .  S
Zr361       O364   2.437       .  S
Zr361       O365   2.439       .  S
Zr361       O366   2.437       .  S
O362        C367   1.286       .  A
O363        H380   0.990   1_565  S
O363        H395   0.990       .  S
O364        H381   0.990       .  S
O365        H385   0.990       .  S
O365        H394   0.990       .  S
O366        C367   1.283       .  A
C367       C1681   1.452       .  S
O368        H387   0.990       .  S
O368        H391   0.990       .  S
O369        H383   0.990       .  S
O369        H390   0.990       .  S
O370        C374   1.276       .  A
O371        C374   1.280       .  A
O372        H382   0.990       .  S
O373        H386   0.990       .  S
C374       C1716   1.449       .  S
Zr397       O398   2.432       .  S
Zr397       O399   2.446       .  S
Zr397       O400   2.440       .  S
Zr397       O403   2.415       .  S
Zr397       O405   2.381       .  S
Zr397       O406   2.380       .  S
Zr397       O407   2.398       .  S
Zr397       O408   2.407       .  S
O398        H454   0.988       .  S
O398        H462   0.990       .  S
O399        C419   1.287       .  A
O400        C421   1.281       .  A
O401       Zr411   2.456       .  S
O401        C420   1.289       .  A
O402       Zr410   2.440       .  S
O402        C421   1.282       .  A
O403        C420   1.281       .  A
O404       Zr412   2.453       .  S
O404        C419   1.286       .  A
O405       Zr410   2.403       .  S
O405       Zr412   2.378       .  S
O406       Zr411   2.391       .  S
O406       Zr412   2.361       .  S
O406        H441   0.966       .  S
O407       Zr410   2.412       .  S
O407       Zr427   2.343       .  S
O407        H444   0.960       .  S
O408       Zr411   2.388       .  S
O408       Zr427   2.399       .  S
Zr409       O434   2.446       .  S
Zr409       O428   2.476       .  S
Zr409       O436   2.393       .  S
Zr409       O424   2.414       .  S
Zr409       O415   2.417       .  S
Zr409       O416   2.406       .  S
Zr409       O417   2.371       .  S
Zr409       O418   2.377       .  S
Zr410       O429   2.436       .  S
Zr410       O422   2.436       .  S
Zr410       O423   2.456       .  S
Zr410       O416   2.396       .  S
Zr410       O417   2.405       .  S
Zr411       O413   2.435       .  S
Zr411       O435   2.435       .  S
Zr411       O437   2.455       .  S
Zr411       O415   2.395       .  S
Zr411       O418   2.392       .  S
Zr412       O438   2.435       .  S
Zr412       O439   2.435       .  S
Zr412       O414   2.437       .  S
Zr412       O415   2.416       .  S
Zr412       O416   2.388       .  S
O413        H450   0.990       .  S
O414        H445   0.990       .  S
O414        H459   0.990       .  S
O416        H442   0.964       .  S
O417       Zr427   2.395       .  S
O418       Zr427   2.344       .  S
O418        H443   0.964       .  S
C419       C1760   1.454       .  S
C420       C1673   1.436       .  S
C421       C1669   1.434       .  S
O422        H458   0.990       .  S
O423        C425   1.288       .  A
O424        C425   1.280       .  A
C425       C1720   1.432       .  S
O426       Zr427   2.440       .  S
O426        H455   0.990       .  S
Zr427       O430   2.437       .  S
Zr427       O431   2.440       .  S
Zr427       O432   2.410       .  S
O428        C433   1.291       .  A
O429        H446   0.990       .  S
O429        H461   0.990       .  S
O430        H447   0.990       .  S
O431        H451   0.990       .  S
O431        H460   0.989       .  S
O432        C433   1.278       .  A
C433       C1682   1.450       .  S
O434        H453   0.990       .  S
O434        H457   0.990       .  S
O435        H449   0.990       .  S
O435        H456   0.990       .  S
O436        C440   1.276       .  A
O437        C440   1.288       .  A
O438        H448   0.990       .  S
O439        H452   0.990       .  S
C440       C1671   1.423       .  S
Zr463       O464   2.445       .  S
Zr463       O465   2.477       .  S
Zr463       O466   2.440       .  S
Zr463       O469   2.458       .  S
Zr463       O471   2.392       .  S
Zr463       O472   2.379       .  S
Zr463       O473   2.426       .  S
Zr463       O474   2.402       .  S
O464        H520   0.991       .  S
O464        H528   0.991       .  S
O465        C485   1.291       .  A
O466        C487   1.283       .  A
O467       Zr477   2.396       .  S
O467        C486   1.275       .  A
O468       Zr476   2.491       .  S
O468        C487   1.295       .  A
O469        C486   1.287       .  A
O470       Zr478   2.436       .  S
O470        C485   1.282       .  A
O471       Zr476   2.424       .  S
O471       Zr478   2.393       .  S
O472       Zr477   2.392       .  S
O472       Zr478   2.377       .  S
O472        H507   0.966       .  S
O473       Zr476   2.417       .  S
O473       Zr493   2.364   1_565  S
O473        H510   0.962       .  S
O474       Zr477   2.390       .  S
O474       Zr493   2.397   1_565  S
Zr475       O500   2.445       .  S
Zr475       O494   2.471   1_565  S
Zr475       O502   2.378   1_565  S
Zr475       O490   2.376   1_565  S
Zr475       O481   2.405       .  S
Zr475       O482   2.407       .  S
Zr475       O483   2.373   1_565  S
Zr475       O484   2.365   1_565  S
Zr476       O495   2.435   1_565  S
Zr476       O488   2.435       .  S
Zr476       O489   2.520       .  S
Zr476       O482   2.398       .  S
Zr476       O483   2.402   1_565  S
Zr477       O479   2.436       .  S
Zr477       O501   2.436       .  S
Zr477       O503   2.418       .  S
Zr477       O481   2.381       .  S
Zr477       O484   2.382   1_565  S
Zr478       O504   2.436       .  S
Zr478       O505   2.436       .  S
Zr478       O480   2.437       .  S
Zr478       O481   2.411       .  S
Zr478       O482   2.395       .  S
O479        H516   0.990       .  S
O480        H511   0.990       .  S
O480        H525   0.990       .  S
O482        H508   0.965       .  S
O483       Zr493   2.384       .  S
O484       Zr493   2.357       .  S
O484        H509   0.965       .  S
C485       C1722   1.500       .  S
C486       C1672   1.427       .  S
C487       C1680   1.450       .  S
O488        H524   0.990       .  S
O489        C491   1.301       .  A
O490        C491   1.273   1_545  A
C491       C1665   1.450   1_565  S
O492       Zr493   2.440       .  S
O492        H521   0.990       .  S
Zr493       O496   2.437       .  S
Zr493       O497   2.438       .  S
Zr493       O498   2.423       .  S
O494        C499   1.290       .  A
O495        H512   0.990       .  S
O495        H527   0.990       .  S
O496        H513   0.990       .  S
O497        H517   0.990       .  S
O497        H526   0.990       .  S
O498        C499   1.280       .  A
C499       C1668   1.454       .  S
O500        H519   0.990       .  S
O500        H523   0.990       .  S
O501        H515   0.990       .  S
O501        H522   0.990       .  S
O502        C506   1.275   1_545  A
O503        C506   1.280       .  A
O504        H514   0.990       .  S
O505        H518   0.990       .  S
C506       C1709   1.448   1_565  S
Zr529       O530   2.435       .  S
Zr529       O531   2.449       .  S
Zr529       O532   2.431       .  S
Zr529       O535   2.400       .  S
Zr529       O537   2.379       .  S
Zr529       O538   2.380       .  S
Zr529       O539   2.401       .  S
Zr529       O540   2.411       .  S
O530        H586   0.988       .  S
O530        H594   0.989       .  S
O531        C551   1.288       .  A
O532        C553   1.277       .  A
O533       Zr543   2.476       .  S
O533        C552   1.293       .  A
O534       Zr542   2.446       .  S
O534        C553   1.282       .  A
O535        C552   1.277       .  A
O536       Zr544   2.452       .  S
O536        C551   1.286       .  A
O537       Zr542   2.403       .  S
O537       Zr544   2.378       .  S
O538       Zr543   2.390       .  S
O538       Zr544   2.361       .  S
O538        H573   0.966       .  S
O539       Zr542   2.412       .  S
O539       Zr559   2.347       .  S
O539        H576   0.960       .  S
O540       Zr543   2.389       .  S
O540       Zr559   2.404       .  S
Zr541       O566   2.445       .  S
Zr541       O560   2.473       .  S
Zr541       O568   2.390       .  S
Zr541       O556   2.413       .  S
Zr541       O547   2.417       .  S
Zr541       O548   2.404       .  S
Zr541       O549   2.372       .  S
Zr541       O550   2.379       .  S
Zr542       O561   2.435       .  S
Zr542       O554   2.436       .  S
Zr542       O555   2.452       .  S
Zr542       O548   2.399       .  S
Zr542       O549   2.406       .  S
Zr543       O545   2.434       .  S
Zr543       O567   2.435       .  S
Zr543       O569   2.469       .  S
Zr543       O547   2.399       .  S
Zr543       O550   2.395       .  S
Zr544       O570   2.435       .  S
Zr544       O571   2.436       .  S
Zr544       O546   2.437       .  S
Zr544       O547   2.415       .  S
Zr544       O548   2.388       .  S
O545        H582   0.990       .  S
O546        H577   0.990       .  S
O546        H591   0.990       .  S
O548        H574   0.964       .  S
O549       Zr559   2.394       .  S
O550       Zr559   2.341       .  S
O550        H575   0.964       .  S
C551       C1725   1.455       .  S
C552       C1741   1.438       .  S
C553       C1663   1.436       .  S
O554        H590   0.990       .  S
O555        C557   1.287       .  A
O556        C557   1.280       .  A
C557       C1704   1.430       .  S
O558       Zr559   2.440       .  S
O558        H587   0.990       .  S
Zr559       O562   2.437       .  S
Zr559       O563   2.441       .  S
Zr559       O564   2.420       .  S
O560        C565   1.290       .  A
O561        H578   0.990       .  S
O561        H593   0.990       .  S
O562        H579   0.990       .  S
O563        H583   0.990       .  S
O563        H592   0.989       .  S
O564        C565   1.280       .  A
C565       C1667   1.453       .  S
O566        H585   0.990       .  S
O566        H589   0.990       .  S
O567        H581   0.990       .  S
O567        H588   0.990       .  S
O568        C572   1.276       .  A
O569        C572   1.291       .  A
O570        H580   0.990       .  S
O571        H584   0.990       .  S
C572       C1662   1.427       .  S
Zr595       O596   2.444       .  S
Zr595       O597   2.506       .  S
Zr595       O598   2.452       .  S
Zr595       O601   2.474       .  S
Zr595       O603   2.395       .  S
Zr595       O604   2.381       .  S
Zr595       O605   2.434       .  S
Zr595       O606   2.407       .  S
O596        H652   0.990       .  S
O596        H660   0.991       .  S
O597        C617   1.297       .  A
O598        C619   1.286       .  A
O599       Zr609   2.399       .  S
O599        C618   1.275       .  A
O600       Zr608   2.503       .  S
O600        C619   1.298       .  A
O601        C618   1.291       .  A
O602       Zr610   2.405       .  S
O602        C617   1.276       .  A
O603       Zr608   2.423       .  S
O603       Zr610   2.396       .  S
O604       Zr609   2.393       .  S
O604       Zr610   2.381       .  S
O604        H639   0.966       .  S
O605       Zr608   2.415       .  S
O605       Zr625   2.368   1_545  S
O605        H642   0.961       .  S
O606       Zr609   2.385       .  S
O606       Zr625   2.403   1_545  S
Zr607       O632   2.444       .  S
Zr607       O626   2.453   1_545  S
Zr607       O634   2.376       .  S
Zr607       O622   2.375   1_545  S
Zr607       O613   2.400       .  S
Zr607       O614   2.400       .  S
Zr607       O615   2.375   1_545  S
Zr607       O616   2.366       .  S
Zr608       O627   2.435   1_545  S
Zr608       O620   2.435       .  S
Zr608       O621   2.526       .  S
Zr608       O614   2.402       .  S
Zr608       O615   2.404   1_545  S
Zr609       O611   2.436       .  S
Zr609       O633   2.436       .  S
Zr609       O635   2.412       .  S
Zr609       O613   2.384       .  S
Zr609       O616   2.384       .  S
Zr610       O636   2.436       .  S
Zr610       O637   2.436       .  S
Zr610       O612   2.437       .  S
Zr610       O613   2.401       .  S
Zr610       O614   2.379       .  S
O611        H648   0.990       .  S
O612        H643   0.990       .  S
O612        H657   0.990       .  S
O614        H640   0.964       .  S
O615       Zr625   2.380       .  S
O616       Zr625   2.351   1_545  S
O616        H641   0.965   1_545  S
C617       C1690   1.500       .  S
C618       C1658   1.435       .  S
C619       C1655   1.459       .  S
O620        H656   0.990       .  S
O621        C623   1.302       .  A
O622        C623   1.272   1_565  A
C623       C1676   1.450   1_545  S
O624       Zr625   2.440       .  S
O624        H653   0.990       .  S
Zr625       O628   2.437       .  S
Zr625       O629   2.439       .  S
Zr625       O630   2.438       .  S
O626        C631   1.286       .  A
O627        H644   0.990   1_565  S
O627        H659   0.990       .  S
O628        H645   0.990       .  S
O629        H649   0.990       .  S
O629        H658   0.990       .  S
O630        C631   1.283       .  A
C631       C1659   1.452       .  S
O632        H651   0.990       .  S
O632        H655   0.990       .  S
O633        H647   0.990       .  S
O633        H654   0.990       .  S
O634        C638   1.276       .  A
O635        C638   1.278       .  A
O636        H646   0.990       .  S
O637        H650   0.990       .  S
C638       C1756   1.441   1_545  S
Zr661       O662   2.431       .  S
Zr661       O663   2.444       .  S
Zr661       O664   2.443       .  S
Zr661       O667   2.402       .  S
Zr661       O669   2.377       .  S
Zr661       O670   2.380       .  S
Zr661       O671   2.399       .  S
Zr661       O672   2.411       .  S
O662        H718   0.989       .  S
O662        H726   0.988       .  S
O663        C683   1.285       .  A
O664        C685   1.280       .  A
O665       Zr675   2.458       .  S
O665        C684   1.289       .  A
O666       Zr674   2.434       .  S
O666        C685   1.281       .  A
O667        C684   1.277       .  A
O668       Zr676   2.447       .  S
O668        C683   1.284       .  A
O669       Zr674   2.405       .  S
O669       Zr676   2.380       .  S
O670       Zr675   2.398       .  S
O670       Zr676   2.363       .  S
O670        H705   0.966       .  S
O671       Zr674   2.416       .  S
O671       Zr691   2.346       .  S
O671        H708   0.960       .  S
O672       Zr675   2.392       .  S
O672       Zr691   2.398       .  S
Zr673       O698   2.446       .  S
Zr673       O692   2.474       .  S
Zr673       O700   2.387       .  S
Zr673       O688   2.414       .  S
Zr673       O679   2.416       .  S
Zr673       O680   2.403       .  S
Zr673       O681   2.370       .  S
Zr673       O682   2.378       .  S
Zr674       O693   2.436       .  S
Zr674       O686   2.436       .  S
Zr674       O687   2.445       .  S
Zr674       O680   2.398       .  S
Zr674       O681   2.404       .  S
Zr675       O677   2.435       .  S
Zr675       O699   2.435       .  S
Zr675       O701   2.466       .  S
Zr675       O679   2.394       .  S
Zr675       O682   2.391       .  S
Zr676       O702   2.435       .  S
Zr676       O703   2.435       .  S
Zr676       O678   2.436       .  S
Zr676       O679   2.415       .  S
Zr676       O680   2.386       .  S
O677        H714   0.990       .  S
O678        H709   0.990       .  S
O678        H723   0.990       .  S
O680        H706   0.964       .  S
O681       Zr691   2.393       .  S
O682       Zr691   2.345       .  S
O682        H707   0.965       .  S
C683       C1698   1.453       .  S
C684       C1654   1.433       .  S
C685       C1652   1.432       .  S
O686        H722   0.990       .  S
O687        C689   1.285       .  A
O688        C689   1.280       .  A
C689       C1749   1.426       .  S
O690       Zr691   2.440       .  S
O690        H719   0.990       .  S
Zr691       O694   2.437       .  S
Zr691       O695   2.440       .  S
Zr691       O696   2.412       .  S
O692        C697   1.291       .  A
O693        H710   0.990       .  S
O693        H725   0.990       .  S
O694        H711   0.990       .  S
O695        H715   0.990       .  S
O695        H724   0.990       .  S
O696        C697   1.278       .  A
C697       C1660   1.450       .  S
O698        H717   0.990       .  S
O698        H721   0.990       .  S
O699        H713   0.990       .  S
O699        H720   0.990       .  S
O700        C704   1.275       .  A
O701        C704   1.290       .  A
O702        H712   0.990       .  S
O703        H716   0.990       .  S
C704       C1677   1.426       .  S
Zr727       O728   2.444       .  S
Zr727       O729   2.478       .  S
Zr727       O730   2.440       .  S
Zr727       O733   2.468       .  S
Zr727       O735   2.395       .  S
Zr727       O736   2.379       .  S
Zr727       O737   2.429       .  S
Zr727       O738   2.400       .  S
O728        H784   0.990       .  S
O728        H792   0.991       .  S
O729        C749   1.291       .  A
O730        C751   1.283       .  A
O731       Zr741   2.395       .  S
O731        C750   1.275       .  A
O732       Zr740   2.499       .  S
O732        C751   1.297       .  A
O733        C750   1.289       .  A
O734       Zr742   2.431       .  S
O734        C749   1.281       .  A
O735       Zr740   2.425       .  S
O735       Zr742   2.393       .  S
O736       Zr741   2.389       .  S
O736       Zr742   2.379       .  S
O736        H771   0.966       .  S
O737       Zr740   2.419       .  S
O737       Zr757   2.365       .  S
O737        H774   0.962       .  S
O738       Zr741   2.389       .  S
O738       Zr757   2.397       .  S
Zr739       O764   2.443       .  S
Zr739       O758   2.466       .  S
Zr739       O766   2.376       .  S
Zr739       O754   2.371       .  S
Zr739       O745   2.403       .  S
Zr739       O746   2.406       .  S
Zr739       O747   2.374       .  S
Zr739       O748   2.364       .  S
Zr740       O759   2.435       .  S
Zr740       O752   2.435       .  S
Zr740       O753   2.533       .  S
Zr740       O746   2.398       .  S
Zr740       O747   2.401       .  S
Zr741       O743   2.436       .  S
Zr741       O765   2.436       .  S
Zr741       O767   2.411       .  S
Zr741       O745   2.382       .  S
Zr741       O748   2.382       .  S
Zr742       O768   2.436       .  S
Zr742       O769   2.436       .  S
Zr742       O744   2.437       .  S
Zr742       O745   2.410       .  S
Zr742       O746   2.392       .  S
O743        H780   0.990       .  S
O744        H775   0.990       .  S
O744        H789   0.990       .  S
O746        H772   0.965       .  S
O747       Zr757   2.383       .  S
O748       Zr757   2.355       .  S
O748        H773   0.965       .  S
C749       C1706   1.498       .  S
C750       C1661   1.432       .  S
C751       C1666   1.454       .  S
O752        H788   0.990       .  S
O753        C755   1.304       .  A
O754        C755   1.272       .  A
C755       C1656   1.454       .  S
O756       Zr757   2.440       .  S
O756        H785   0.990       .  S
Zr757       O760   2.437       .  S
Zr757       O761   2.439       .  S
Zr757       O762   2.425       .  S
O758        C763   1.289       .  A
O759        H776   0.990   1_545  S
O759        H791   0.990       .  S
O760        H777   0.990       .  S
O761        H781   0.990       .  S
O761        H790   0.990       .  S
O762        C763   1.281       .  A
C763       C1650   1.452       .  S
O764        H783   0.990       .  S
O764        H787   0.990       .  S
O765        H779   0.990       .  S
O765        H786   0.990       .  S
O766        C770   1.275       .  A
O767        C770   1.278       .  A
O768        H778   0.990       .  S
O769        H782   0.990       .  S
C770       C1693   1.440       .  S
Zr793       O794   2.436       .  S
Zr793       O795   2.444       .  S
Zr793       O796   2.429       .  S
Zr793       O799   2.393       .  S
Zr793       O801   2.377       .  S
Zr793       O802   2.382       .  S
Zr793       O803   2.401       .  S
Zr793       O804   2.412       .  S
O794        H850   0.989       .  S
O794        H858   0.989       .  S
O795        C815   1.287       .  A
O796        C817   1.275       .  A
O797       Zr807   2.478       .  S
O797        C816   1.294       .  A
O798       Zr806   2.440       .  S
O798        C817   1.279       .  A
O799        C816   1.276       .  A
O800       Zr808   2.451       .  S
O800        C815   1.286       .  A
O801       Zr806   2.402       .  S
O801       Zr808   2.377       .  S
O802       Zr807   2.392       .  S
O802       Zr808   2.361       .  S
O802        H837   0.966       .  S
O803       Zr806   2.411       .  S
O803       Zr823   2.350       .  S
O803        H840   0.960       .  S
O804       Zr807   2.392       .  S
O804       Zr823   2.404       .  S
Zr805       O830   2.445       .  S
Zr805       O824   2.471       .  S
Zr805       O832   2.384       .  S
Zr805       O820   2.413       .  S
Zr805       O811   2.416       .  S
Zr805       O812   2.402       .  S
Zr805       O813   2.371       .  S
Zr805       O814   2.379       .  S
Zr806       O825   2.435       .  S
Zr806       O818   2.436       .  S
Zr806       O819   2.440       .  S
Zr806       O812   2.400       .  S
Zr806       O813   2.406       .  S
Zr807       O809   2.435       .  S
Zr807       O831   2.435       .  S
Zr807       O833   2.477       .  S
Zr807       O811   2.398       .  S
Zr807       O814   2.394       .  S
Zr808       O834   2.435       .  S
Zr808       O835   2.436       .  S
Zr808       O810   2.436       .  S
Zr808       O811   2.415       .  S
Zr808       O812   2.387       .  S
O809        H846   0.990       .  S
O810        H841   0.990       .  S
O810        H855   0.990       .  S
O812        H838   0.964       .  S
O813       Zr823   2.393       .  S
O814       Zr823   2.342       .  S
O814        H839   0.964       .  S
C815       C1713   1.453       .  S
C816       C1647   1.435       .  S
C817       C1645   1.434       .  S
O818        H854   0.990       .  S
O819        C821   1.285       .  A
O820        C821   1.280       .  A
C821       C1688   1.424       .  S
O822       Zr823   2.440       .  S
O822        H851   0.990       .  S
Zr823       O826   2.437       .  S
Zr823       O827   2.441       .  S
Zr823       O828   2.419       .  S
O824        C829   1.290       .  A
O825        H842   0.990       .  S
O825        H857   0.990       .  S
O826        H843   0.990       .  S
O827        H847   0.990       .  S
O827        H856   0.990       .  S
O828        C829   1.280       .  A
C829       C1649   1.452       .  S
O830        H849   0.990       .  S
O830        H853   0.990       .  S
O831        H845   0.990       .  S
O831        H852   0.990       .  S
O832        C836   1.274       .  A
O833        C836   1.292       .  A
O834        H844   0.990       .  S
O835        H848   0.990       .  S
C836       C1657   1.429       .  S
Zr859       O860   2.440   1_554  S
Zr859       O861   2.435       .  S
Zr859       O862   2.425       .  S
Zr859       O865   2.417   1_554  S
Zr859       O867   2.388       .  S
Zr859       O868   2.373       .  S
Zr859       O869   2.407       .  S
Zr859       O870   2.400   1_554  S
O860        H916   0.990       .  S
O860        H924   0.990       .  S
O861        C881   1.284       .  A
O862        C883   1.279       .  A
O863       Zr873   2.380   1_556  S
O863        C882   1.276       .  A
O864       Zr872   2.452       .  S
O864        C883   1.285       .  A
O865        C882   1.282       .  A
O866       Zr874   2.483       .  S
O866        C881   1.293       .  A
O867       Zr872   2.411       .  S
O867       Zr874   2.378       .  S
O868       Zr873   2.383       .  S
O868       Zr874   2.357       .  S
O868        H903   0.966       .  S
O869       Zr872   2.427       .  S
O869       Zr889   2.356   1_554  S
O869        H906   0.963   1_554  S
O870       Zr873   2.389   1_556  S
O870       Zr889   2.391       .  S
Zr871       O896   2.440       .  S
Zr871       O890   2.452       .  S
Zr871       O898   2.424       .  S
Zr871       O886   2.396       .  S
Zr871       O877   2.405       .  S
Zr871       O878   2.415       .  S
Zr871       O879   2.376       .  S
Zr871       O880   2.368   1_554  S
Zr872       O891   2.437       .  S
Zr872       O884   2.434       .  S
Zr872       O885   2.494       .  S
Zr872       O878   2.395       .  S
Zr872       O879   2.390       .  S
Zr873       O875   2.436   1_654  S
Zr873       O897   2.436   1_655  S
Zr873       O899   2.403   1_655  S
Zr873       O877   2.383       .  S
Zr873       O880   2.376   1_554  S
Zr874       O900   2.435       .  S
Zr874       O901   2.435       .  S
Zr874       O876   2.436       .  S
Zr874       O877   2.421       .  S
Zr874       O878   2.418       .  S
O875        H912   0.990       .  S
O876        H907   0.990       .  S
O876        H921   0.990       .  S
O878        H904   0.966       .  S
O879       Zr889   2.385   1_554  S
O880       Zr889   2.355       .  S
O880        H905   0.964       .  S
C881       C1635   1.503       .  S
C882       C1640   1.450       .  S
C883       C1634   1.430   1_554  S
O884        H920   0.990       .  S
O885        C887   1.295       .  A
O886        C887   1.276       .  A
C887       C1644   1.450   1_545  S
O888       Zr889   2.440       .  S
O888        H917   0.990       .  S
Zr889       O892   2.437       .  S
Zr889       O893   2.442       .  S
Zr889       O894   2.405       .  S
O890        C895   1.287   1_554  A
O891        H908   0.990       .  S
O891        H923   0.990       .  S
O892        H909   0.990       .  S
O893        H913   0.990       .  S
O893        H922   0.989       .  S
O894        C895   1.277       .  A
C895       C1674   1.435   1_545  S
O896        H915   0.990       .  S
O896        H919   0.990       .  S
O897        H911   0.990       .  S
O897        H918   0.990       .  S
O898        C902   1.282   1_655  A
O899        C902   1.277       .  A
O900        H910   0.990       .  S
O901        H914   0.990       .  S
C902       C1746   1.415       .  S
Zr925       O926   2.438       .  S
Zr925       O927   2.395       .  S
Zr925       O928   2.412       .  S
Zr925       O931   2.421       .  S
Zr925       O933   2.386       .  S
Zr925       O934   2.373       .  S
Zr925       O935   2.396       .  S
Zr925       O936   2.388       .  S
O926        H982   0.990       .  S
O926        H990   0.990       .  S
O927        C947   1.276       .  A
O928        C949   1.278       .  A
O929       Zr939   2.370       .  S
O929        C948   1.275       .  A
O930       Zr938   2.437       .  S
O930        C949   1.282       .  A
O931        C948   1.283       .  A
O932       Zr940   2.518       .  S
O932        C947   1.300       .  A
O933       Zr938   2.407       .  S
O933       Zr940   2.371       .  S
O934       Zr939   2.378       .  S
O934       Zr940   2.348       .  S
O934        H969   0.965       .  S
O935       Zr938   2.425       .  S
O935       Zr955   2.353       .  S
O935        H972   0.964       .  S
O936       Zr939   2.390       .  S
O936       Zr955   2.377       .  S
Zr937       O962   2.440       .  S
Zr937       O956   2.473       .  S
Zr937       O964   2.420       .  S
Zr937       O952   2.393       .  S
Zr937       O943   2.412       .  S
Zr937       O944   2.421       .  S
Zr937       O945   2.372       .  S
Zr937       O946   2.366       .  S
Zr938       O957   2.438       .  S
Zr938       O950   2.434       .  S
Zr938       O951   2.488       .  S
Zr938       O944   2.390       .  S
Zr938       O945   2.385       .  S
Zr939       O941   2.436       .  S
Zr939       O963   2.436       .  S
Zr939       O965   2.397       .  S
Zr939       O943   2.380       .  S
Zr939       O946   2.372       .  S
Zr940       O966   2.435       .  S
Zr940       O967   2.436       .  S
Zr940       O942   2.436       .  S
Zr940       O943   2.430       .  S
Zr940       O944   2.433       .  S
O941        H978   0.990       .  S
O942        H973   0.990       .  S
O942        H987   0.990       .  S
O944        H970   0.966       .  S
O945       Zr955   2.391       .  S
O946       Zr955   2.362       .  S
O946        H971   0.965       .  S
C947       C1627   1.498       .  S
C948       C1621   1.447       .  S
C949       C1626   1.418       .  S
O950        H986   0.990       .  S
O951        C953   1.293       .  A
O952        C953   1.275       .  A
C953       C1631   1.448   1_565  S
O954       Zr955   2.439       .  S
O954        H983   0.990       .  S
Zr955       O958   2.437       .  S
Zr955       O959   2.441       .  S
Zr955       O960   2.377       .  S
O956        C961   1.291       .  A
O957        H974   0.990       .  S
O957        H989   0.990       .  S
O958        H975   0.990       .  S
O959        H979   0.990       .  S
O959        H988   0.989       .  S
O960        C961   1.271       .  A
C961       C1648   1.432   1_565  S
O962        H981   0.990       .  S
O962        H985   0.990       .  S
O963        H977   0.990       .  S
O963        H984   0.990       .  S
O964        C968   1.281       .  A
O965        C968   1.275       .  A
O966        H976   0.990       .  S
O967        H980   0.990       .  S
C968       C1699   1.411   1_455  S
Zr991       O992   2.440       .  S
Zr991       O993   2.426       .  S
Zr991       O994   2.423       .  S
Zr991       O997   2.419       .  S
Zr991       O999   2.388       .  S
Zr991      O1000   2.373       .  S
Zr991      O1001   2.404       .  S
Zr991      O1002   2.396       .  S
O992       H1048   0.990       .  S
O992       H1056   0.990       .  S
O993       C1013   1.282       .  A
O994       C1015   1.280       .  A
O995      Zr1005   2.377       .  S
O995       C1014   1.276       .  A
O996      Zr1004   2.449       .  S
O996       C1015   1.285       .  A
O997       C1014   1.282       .  A
O998      Zr1006   2.484       .  S
O998       C1013   1.293       .  A
O999      Zr1004   2.411       .  S
O999      Zr1006   2.377       .  S
O1000     Zr1005   2.383       .  S
O1000     Zr1006   2.357       .  S
O1000      H1035   0.966       .  S
O1001     Zr1004   2.426       .  S
O1001     Zr1021   2.354       .  S
O1001      H1038   0.963       .  S
O1002     Zr1005   2.389       .  S
O1002     Zr1021   2.387       .  S
Zr1003     O1028   2.440       .  S
Zr1003     O1022   2.455       .  S
Zr1003     O1030   2.420       .  S
Zr1003     O1018   2.392       .  S
Zr1003     O1009   2.405       .  S
Zr1003     O1010   2.415       .  S
Zr1003     O1011   2.375       .  S
Zr1003     O1012   2.368       .  S
Zr1004     O1023   2.437       .  S
Zr1004     O1016   2.434       .  S
Zr1004     O1017   2.495       .  S
Zr1004     O1010   2.393       .  S
Zr1004     O1011   2.388       .  S
Zr1005     O1007   2.436       .  S
Zr1005     O1029   2.436       .  S
Zr1005     O1031   2.401       .  S
Zr1005     O1009   2.382       .  S
Zr1005     O1012   2.375       .  S
Zr1006     O1032   2.435       .  S
Zr1006     O1033   2.435       .  S
Zr1006     O1008   2.436       .  S
Zr1006     O1009   2.421       .  S
Zr1006     O1010   2.418       .  S
O1007      H1044   0.990       .  S
O1008      H1039   0.990       .  S
O1008      H1053   0.990       .  S
O1010      H1036   0.966       .  S
O1011     Zr1021   2.386       .  S
O1012     Zr1021   2.358       .  S
O1012      H1037   0.964       .  S
C1013      C1611   1.501       .  S
C1014      C1616   1.450       .  S
C1015      C1609   1.427       .  S
O1016      H1052   0.990       .  S
O1017      C1019   1.295       .  A
O1018      C1019   1.275       .  A
C1019      C1619   1.449       .  S
O1020     Zr1021   2.440       .  S
O1020      H1049   0.990       .  S
Zr1021     O1024   2.438       .  S
Zr1021     O1025   2.441       .  S
Zr1021     O1026   2.394       .  S
O1022      C1027   1.287       .  A
O1023      H1040   0.990       .  S
O1023      H1055   0.990       .  S
O1024      H1041   0.990       .  S
O1025      H1045   0.990       .  S
O1025      H1054   0.989       .  S
O1026      C1027   1.275       .  A
C1027      C1653   1.431       .  S
O1028      H1047   0.990       .  S
O1028      H1051   0.990       .  S
O1029      H1043   0.990       .  S
O1029      H1050   0.990       .  S
O1030      C1034   1.281       .  A
O1031      C1034   1.276       .  A
O1032      H1042   0.990       .  S
O1033      H1046   0.990       .  S
C1034      C1686   1.413       .  S
Zr1057     O1058   2.445       .  S
Zr1057     O1059   2.477       .  S
Zr1057     O1060   2.439       .  S
Zr1057     O1063   2.466       .  S
Zr1057     O1065   2.395       .  S
Zr1057     O1066   2.379       .  S
Zr1057     O1067   2.428       .  S
Zr1057     O1068   2.399       .  S
O1058      H1114   0.990       .  S
O1058      H1122   0.991       .  S
O1059      C1079   1.291       .  A
O1060      C1081   1.283       .  A
O1061     Zr1071   2.391       .  S
O1061      C1080   1.274       .  A
O1062     Zr1070   2.502       .  S
O1062      C1081   1.297       .  A
O1063      C1080   1.289       .  A
O1064     Zr1072   2.433       .  S
O1064      C1079   1.282       .  A
O1065     Zr1070   2.425       .  S
O1065     Zr1072   2.393       .  S
O1066     Zr1071   2.389       .  S
O1066     Zr1072   2.378       .  S
O1066      H1101   0.966       .  S
O1067     Zr1070   2.418       .  S
O1067     Zr1087   2.365   1_655  S
O1067      H1104   0.962   1_655  S
O1068     Zr1071   2.388       .  S
O1068     Zr1087   2.396   1_655  S
Zr1069     O1094   2.444   1_455  S
Zr1069     O1088   2.471       .  S
Zr1069     O1096   2.376       .  S
Zr1069     O1084   2.371       .  S
Zr1069     O1075   2.404   1_455  S
Zr1069     O1076   2.407   1_455  S
Zr1069     O1077   2.374       .  S
Zr1069     O1078   2.363       .  S
Zr1070     O1089   2.435   1_655  S
Zr1070     O1082   2.435       .  S
Zr1070     O1083   2.534       .  S
Zr1070     O1076   2.398       .  S
Zr1070     O1077   2.402   1_655  S
Zr1071     O1073   2.436       .  S
Zr1071     O1095   2.437       .  S
Zr1071     O1097   2.410       .  S
Zr1071     O1075   2.381       .  S
Zr1071     O1078   2.381   1_655  S
Zr1072     O1098   2.436       .  S
Zr1072     O1099   2.436       .  S
Zr1072     O1074   2.437       .  S
Zr1072     O1075   2.410       .  S
Zr1072     O1076   2.393       .  S
O1073      H1110   0.990       .  S
O1074      H1105   0.990       .  S
O1074      H1119   0.990       .  S
O1076      H1102   0.965       .  S
O1077     Zr1087   2.384       .  S
O1078     Zr1087   2.356       .  S
O1078      H1103   0.965       .  S
C1079      C1612   1.498       .  S
C1080      C1603   1.428       .  S
C1081      C1601   1.455       .  S
O1082      H1118   0.990       .  S
O1083      C1085   1.304   1_655  A
O1084      C1085   1.272       .  A
C1085      C1605   1.454       .  S
O1086     Zr1087   2.440       .  S
O1086      H1115   0.990       .  S
Zr1087     O1090   2.437       .  S
Zr1087     O1091   2.439       .  S
Zr1087     O1092   2.423       .  S
O1088      C1093   1.290       .  A
O1089      H1106   0.990       .  S
O1089      H1121   0.990       .  S
O1090      H1107   0.990       .  S
O1091      H1111   0.990       .  S
O1091      H1120   0.990       .  S
O1092      C1093   1.280       .  A
C1093      C1607   1.454       .  S
O1094      H1113   0.990       .  S
O1094      H1117   0.990       .  S
O1095      H1109   0.990       .  S
O1095      H1116   0.990       .  S
O1096      C1100   1.275       .  A
O1097      C1100   1.278   1_655  A
O1098      H1108   0.990       .  S
O1099      H1112   0.990       .  S
C1100      C1622   1.441       .  S
Zr1123     O1124   2.436       .  S
Zr1123     O1125   2.445       .  S
Zr1123     O1126   2.429       .  S
Zr1123     O1129   2.394       .  S
Zr1123     O1131   2.376       .  S
Zr1123     O1132   2.382       .  S
Zr1123     O1133   2.401       .  S
Zr1123     O1134   2.412       .  S
O1124      H1180   0.989       .  S
O1124      H1188   0.989       .  S
O1125      C1145   1.287       .  A
O1126      C1147   1.276       .  A
O1127     Zr1137   2.473       .  S
O1127      C1146   1.293       .  A
O1128     Zr1136   2.440       .  S
O1128      C1147   1.279       .  A
O1129      C1146   1.276       .  A
O1130     Zr1138   2.451       .  S
O1130      C1145   1.286       .  A
O1131     Zr1136   2.402       .  S
O1131     Zr1138   2.377       .  S
O1132     Zr1137   2.391       .  S
O1132     Zr1138   2.360       .  S
O1132      H1167   0.966       .  S
O1133     Zr1136   2.410       .  S
O1133     Zr1153   2.350       .  S
O1133      H1170   0.960       .  S
O1134     Zr1137   2.392       .  S
O1134     Zr1153   2.405       .  S
Zr1135     O1160   2.445       .  S
Zr1135     O1154   2.472       .  S
Zr1135     O1162   2.387       .  S
Zr1135     O1150   2.414       .  S
Zr1135     O1141   2.417       .  S
Zr1135     O1142   2.402       .  S
Zr1135     O1143   2.372       .  S
Zr1135     O1144   2.378       .  S
Zr1136     O1155   2.435       .  S
Zr1136     O1148   2.436       .  S
Zr1136     O1149   2.437       .  S
Zr1136     O1142   2.401       .  S
Zr1136     O1143   2.406       .  S
Zr1137     O1139   2.435       .  S
Zr1137     O1161   2.435       .  S
Zr1137     O1163   2.472       .  S
Zr1137     O1141   2.398       .  S
Zr1137     O1144   2.394       .  S
Zr1138     O1164   2.435       .  S
Zr1138     O1165   2.436       .  S
Zr1138     O1140   2.436       .  S
Zr1138     O1141   2.416       .  S
Zr1138     O1142   2.384       .  S
O1139      H1176   0.990       .  S
O1140      H1171   0.990       .  S
O1140      H1185   0.990       .  S
O1142      H1168   0.964       .  S
O1143     Zr1153   2.394       .  S
O1144     Zr1153   2.339       .  S
O1144      H1169   0.964       .  S
C1145      C1620   1.453       .  S
C1146      C1683   1.433       .  S
C1147      C1651   1.433       .  S
O1148      H1184   0.990       .  S
O1149      C1151   1.284       .  A
O1150      C1151   1.280       .  A
C1151      C1625   1.423       .  S
O1152     Zr1153   2.440       .  S
O1152      H1181   0.990       .  S
Zr1153     O1156   2.437       .  S
Zr1153     O1157   2.441       .  S
Zr1153     O1158   2.422       .  S
O1154      C1159   1.290       .  A
O1155      H1172   0.990       .  S
O1155      H1187   0.990       .  S
O1156      H1173   0.990       .  S
O1157      H1177   0.990       .  S
O1157      H1186   0.990       .  S
O1158      C1159   1.280       .  A
C1159      C1608   1.454       .  S
O1160      H1179   0.990       .  S
O1160      H1183   0.990       .  S
O1161      H1175   0.990       .  S
O1161      H1182   0.990       .  S
O1162      C1166   1.275       .  A
O1163      C1166   1.291       .  A
O1164      H1174   0.990       .  S
O1165      H1178   0.990       .  S
C1166      C1599   1.427       .  S
Zr1189     O1190   2.444       .  S
Zr1189     O1191   2.507       .  S
Zr1189     O1192   2.450       .  S
Zr1189     O1195   2.471       .  S
Zr1189     O1197   2.394       .  S
Zr1189     O1198   2.379       .  S
Zr1189     O1199   2.433       .  S
Zr1189     O1200   2.410       .  S
O1190      H1246   0.990       .  S
O1190      H1254   0.991       .  S
O1191      C1211   1.297       .  A
O1192      C1213   1.286       .  A
O1193     Zr1203   2.394       .  S
O1193      C1212   1.274       .  A
O1194     Zr1202   2.505       .  S
O1194      C1213   1.298       .  A
O1195      C1212   1.290       .  A
O1196     Zr1204   2.402       .  S
O1196      C1211   1.275       .  A
O1197     Zr1202   2.422       .  S
O1197     Zr1204   2.398       .  S
O1198     Zr1203   2.391       .  S
O1198     Zr1204   2.382       .  S
O1198      H1233   0.966       .  S
O1199     Zr1202   2.414       .  S
O1199     Zr1219   2.368       .  S
O1199      H1236   0.961       .  S
O1200     Zr1203   2.385       .  S
O1200     Zr1219   2.406       .  S
Zr1201     O1226   2.447       .  S
Zr1201     O1220   2.452       .  S
Zr1201     O1228   2.382       .  S
Zr1201     O1216   2.379       .  S
Zr1201     O1207   2.397       .  S
Zr1201     O1208   2.400       .  S
Zr1201     O1209   2.376       .  S
Zr1201     O1210   2.368       .  S
Zr1202     O1221   2.435       .  S
Zr1202     O1214   2.435       .  S
Zr1202     O1215   2.522       .  S
Zr1202     O1208   2.403       .  S
Zr1202     O1209   2.406       .  S
Zr1203     O1205   2.436       .  S
Zr1203     O1227   2.435       .  S
Zr1203     O1229   2.407       .  S
Zr1203     O1207   2.382       .  S
Zr1203     O1210   2.388       .  S
Zr1204     O1230   2.436       .  S
Zr1204     O1231   2.436       .  S
Zr1204     O1206   2.436       .  S
Zr1204     O1207   2.397       .  S
Zr1204     O1208   2.378       .  S
O1205      H1242   0.990       .  S
O1206      H1237   0.990       .  S
O1206      H1251   0.990       .  S
O1208      H1234   0.964       .  S
O1209     Zr1219   2.378       .  S
O1210     Zr1219   2.356       .  S
O1210      H1235   0.966       .  S
C1211      C1628   1.499       .  S
C1212      C1600   1.432       .  S
C1213      C1606   1.459       .  S
O1214      H1250   0.990       .  S
O1215      C1217   1.301       .  A
O1216      C1217   1.273       .  A
C1217      C1596   1.450       .  S
O1218     Zr1219   2.440       .  S
O1218      H1247   0.990       .  S
Zr1219     O1222   2.438       .  S
Zr1219     O1223   2.438       .  S
Zr1219     O1224   2.439       .  S
O1220      C1225   1.285       .  A
O1221      H1238   0.990       .  S
O1221      H1253   0.990       .  S
O1222      H1239   0.990       .  S
O1223      H1243   0.990       .  S
O1223      H1252   0.990       .  S
O1224      C1225   1.283       .  A
C1225      C1598   1.452       .  S
O1226      H1245   0.990       .  S
O1226      H1249   0.990       .  S
O1227      H1241   0.990       .  S
O1227      H1248   0.990       .  S
O1228      C1232   1.277       .  A
O1229      C1232   1.277       .  A
O1230      H1240   0.990       .  S
O1231      H1244   0.990       .  S
C1232      C1738   1.447       .  S
Zr1255     O1256   2.431       .  S
Zr1255     O1257   2.442       .  S
Zr1255     O1258   2.444       .  S
Zr1255     O1261   2.400       .  S
Zr1255     O1263   2.376       .  S
Zr1255     O1264   2.382       .  S
Zr1255     O1265   2.397       .  S
Zr1255     O1266   2.411       .  S
O1256      H1312   0.989       .  S
O1256      H1320   0.988       .  S
O1257      C1277   1.285       .  A
O1258      C1279   1.280       .  A
O1259     Zr1269   2.461       .  S
O1259      C1278   1.290       .  A
O1260     Zr1268   2.433       .  S
O1260      C1279   1.281       .  A
O1261      C1278   1.277       .  A
O1262     Zr1270   2.446       .  S
O1262      C1277   1.284       .  A
O1263     Zr1268   2.405       .  S
O1263     Zr1270   2.381       .  S
O1264     Zr1269   2.399       .  S
O1264     Zr1270   2.363       .  S
O1264      H1299   0.966       .  S
O1265     Zr1268   2.416       .  S
O1265     Zr1285   2.345       .  S
O1265      H1302   0.960       .  S
O1266     Zr1269   2.393       .  S
O1266     Zr1285   2.396       .  S
Zr1267     O1292   2.447       .  S
Zr1267     O1286   2.476       .  S
Zr1267     O1294   2.387       .  S
Zr1267     O1282   2.419       .  S
Zr1267     O1273   2.417       .  S
Zr1267     O1274   2.402       .  S
Zr1267     O1275   2.370       .  S
Zr1267     O1276   2.379       .  S
Zr1268     O1287   2.436       .  S
Zr1268     O1280   2.436       .  S
Zr1268     O1281   2.444       .  S
Zr1268     O1274   2.398       .  S
Zr1268     O1275   2.404       .  S
Zr1269     O1271   2.435       .  S
Zr1269     O1293   2.435       .  S
Zr1269     O1295   2.471       .  S
Zr1269     O1273   2.395       .  S
Zr1269     O1276   2.391       .  S
Zr1270     O1296   2.435       .  S
Zr1270     O1297   2.435       .  S
Zr1270     O1272   2.437       .  S
Zr1270     O1273   2.415       .  S
Zr1270     O1274   2.385       .  S
O1271      H1308   0.990       .  S
O1272      H1303   0.990       .  S
O1272      H1317   0.990       .  S
O1274      H1300   0.964       .  S
O1275     Zr1285   2.394       .  S
O1276     Zr1285   2.345       .  S
O1276      H1301   0.965       .  S
C1277      C1632   1.451       .  S
C1278      C1701   1.433       .  S
C1279      C1646   1.432       .  S
O1280      H1316   0.990       .  S
O1281      C1283   1.285       .  A
O1282      C1283   1.281       .  A
C1283      C1732   1.428       .  S
O1284     Zr1285   2.441       .  S
O1284      H1313   0.990       .  S
Zr1285     O1288   2.437       .  S
Zr1285     O1289   2.440       .  S
Zr1285     O1290   2.410       .  S
O1286      C1291   1.291       .  A
O1287      H1304   0.990       .  S
O1287      H1319   0.990       .  S
O1288      H1305   0.990       .  S
O1289      H1309   0.990       .  S
O1289      H1318   0.990       .  S
O1290      C1291   1.278       .  A
C1291      C1597   1.450       .  S
O1292      H1311   0.990       .  S
O1292      H1315   0.990       .  S
O1293      H1307   0.990       .  S
O1293      H1314   0.990       .  S
O1294      C1298   1.275       .  A
O1295      C1298   1.291       .  A
O1296      H1306   0.990       .  S
O1297      H1310   0.990       .  S
C1298      C1593   1.428       .  S
Zr1321     O1322   2.444       .  S
Zr1321     O1323   2.508       .  S
Zr1321     O1324   2.453       .  S
Zr1321     O1327   2.468       .  S
Zr1321     O1329   2.392       .  S
Zr1321     O1330   2.381       .  S
Zr1321     O1331   2.433       .  S
Zr1321     O1332   2.410       .  S
O1322      H1378   0.990       .  S
O1322      H1386   0.991       .  S
O1323      C1343   1.297       .  A
O1324      C1345   1.286       .  A
O1325     Zr1335   2.403       .  S
O1325      C1344   1.276       .  A
O1326     Zr1334   2.492       .  S
O1326      C1345   1.295       .  A
O1327      C1344   1.290       .  A
O1328     Zr1336   2.406       .  S
O1328      C1343   1.276       .  A
O1329     Zr1334   2.422       .  S
O1329     Zr1336   2.396       .  S
O1330     Zr1335   2.395       .  S
O1330     Zr1336   2.380       .  S
O1330      H1365   0.966       .  S
O1331     Zr1334   2.413       .  S
O1331     Zr1351   2.370       .  S
O1331      H1368   0.961       .  S
O1332     Zr1335   2.385       .  S
O1332     Zr1351   2.403       .  S
Zr1333     O1358   2.445   1_556  S
Zr1333     O1352   2.455   1_455  S
Zr1333     O1360   2.381       .  S
Zr1333     O1348   2.383       .  S
Zr1333     O1339   2.401       .  S
Zr1333     O1340   2.400       .  S
Zr1333     O1341   2.375       .  S
Zr1333     O1342   2.367       .  S
Zr1334     O1353   2.435       .  S
Zr1334     O1346   2.435       .  S
Zr1334     O1347   2.511       .  S
Zr1334     O1340   2.402       .  S
Zr1334     O1341   2.405       .  S
Zr1335     O1337   2.436       .  S
Zr1335     O1359   2.436       .  S
Zr1335     O1361   2.417       .  S
Zr1335     O1339   2.384       .  S
Zr1335     O1342   2.385       .  S
Zr1336     O1362   2.436       .  S
Zr1336     O1363   2.435       .  S
Zr1336     O1338   2.437       .  S
Zr1336     O1339   2.401       .  S
Zr1336     O1340   2.377       .  S
O1337      H1374   0.990       .  S
O1338      H1369   0.990       .  S
O1338      H1383   0.990       .  S
O1340      H1366   0.964       .  S
O1341     Zr1351   2.380       .  S
O1342     Zr1351   2.353       .  S
O1342      H1367   0.966       .  S
C1343      C1734   1.501       .  S
C1344      C1594   1.433       .  S
C1345      C1595   1.455       .  S
O1346      H1382   0.990       .  S
O1347      C1349   1.299       .  A
O1348      C1349   1.274       .  A
C1349      C1589   1.446   1_556  S
O1350     Zr1351   2.440   1_655  S
O1350      H1379   0.990       .  S
Zr1351     O1354   2.437   1_455  S
Zr1351     O1355   2.438   1_455  S
Zr1351     O1356   2.439   1_455  S
O1352      C1357   1.286       .  A
O1353      H1370   0.990       .  S
O1353      H1385   0.990   1_455  S
O1354      H1371   0.990       .  S
O1355      H1375   0.990       .  S
O1355      H1384   0.990       .  S
O1356      C1357   1.283       .  A
C1357      C1591   1.454       .  S
O1358      H1377   0.990       .  S
O1358      H1381   0.990       .  S
O1359      H1373   0.990       .  S
O1359      H1380   0.990       .  S
O1360      C1364   1.276       .  A
O1361      C1364   1.280       .  A
O1362      H1372   0.990       .  S
O1363      H1376   0.990       .  S
C1364      C1639   1.448       .  S
Zr1387     O1388   2.431       .  S
Zr1387     O1389   2.446       .  S
Zr1387     O1390   2.446       .  S
Zr1387     O1393   2.412       .  S
Zr1387     O1395   2.380       .  S
Zr1387     O1396   2.379       .  S
Zr1387     O1397   2.400       .  S
Zr1387     O1398   2.410       .  S
O1388      H1444   0.989       .  S
O1388      H1452   0.988       .  S
O1389      C1409   1.285       .  A
O1390      C1411   1.281       .  A
O1391     Zr1401   2.450       .  S
O1391      C1410   1.287       .  A
O1392     Zr1400   2.440       .  S
O1392      C1411   1.283       .  A
O1393      C1410   1.279       .  A
O1394     Zr1402   2.450       .  S
O1394      C1409   1.285       .  A
O1395     Zr1400   2.407       .  S
O1395     Zr1402   2.381       .  S
O1396     Zr1401   2.397       .  S
O1396     Zr1402   2.364       .  S
O1396      H1431   0.966       .  S
O1397     Zr1400   2.418       .  S
O1397     Zr1417   2.342       .  S
O1397      H1434   0.960       .  S
O1398     Zr1401   2.391       .  S
O1398     Zr1417   2.399       .  S
Zr1399     O1424   2.446   1_556  S
Zr1399     O1418   2.477       .  S
Zr1399     O1426   2.393       .  S
Zr1399     O1414   2.413       .  S
Zr1399     O1405   2.417       .  S
Zr1399     O1406   2.406       .  S
Zr1399     O1407   2.371       .  S
Zr1399     O1408   2.377       .  S
Zr1400     O1419   2.436       .  S
Zr1400     O1412   2.436       .  S
Zr1400     O1413   2.459       .  S
Zr1400     O1406   2.397       .  S
Zr1400     O1407   2.404       .  S
Zr1401     O1403   2.435       .  S
Zr1401     O1425   2.435       .  S
Zr1401     O1427   2.456       .  S
Zr1401     O1405   2.394       .  S
Zr1401     O1408   2.391       .  S
Zr1402     O1428   2.435       .  S
Zr1402     O1429   2.435       .  S
Zr1402     O1404   2.437       .  S
Zr1402     O1405   2.417       .  S
Zr1402     O1406   2.388       .  S
O1403      H1440   0.990       .  S
O1404      H1435   0.990       .  S
O1404      H1449   0.990       .  S
O1406      H1432   0.964       .  S
O1407     Zr1417   2.393       .  S
O1408     Zr1417   2.344       .  S
O1408      H1433   0.964       .  S
C1409      C1744   1.455       .  S
C1410      C1727   1.434       .  S
C1411      C1664   1.434       .  S
O1412      H1448   0.990       .  S
O1413      C1415   1.288       .  A
O1414      C1415   1.280       .  A
C1415      C1633   1.433       .  S
O1416     Zr1417   2.440       .  S
O1416      H1445   0.990       .  S
Zr1417     O1420   2.438       .  S
Zr1417     O1421   2.440       .  S
Zr1417     O1422   2.412       .  S
O1418      C1423   1.291       .  A
O1419      H1436   0.990       .  S
O1419      H1451   0.990       .  S
O1420      H1437   0.990       .  S
O1421      H1441   0.990       .  S
O1421      H1450   0.989       .  S
O1422      C1423   1.278       .  A
C1423      C1592   1.452       .  S
O1424      H1443   0.990       .  S
O1424      H1447   0.990       .  S
O1425      H1439   0.990       .  S
O1425      H1446   0.990       .  S
O1426      C1430   1.276       .  A
O1427      C1430   1.288       .  A
O1428      H1438   0.990       .  S
O1429      H1442   0.990       .  S
C1430      C1587   1.423   1_556  S
Zr1453     O1454   2.445       .  S
Zr1453     O1455   2.477       .  S
Zr1453     O1456   2.439       .  S
Zr1453     O1459   2.458       .  S
Zr1453     O1461   2.392       .  S
Zr1453     O1462   2.379       .  S
Zr1453     O1463   2.426       .  S
Zr1453     O1464   2.402       .  S
O1454      H1510   0.990       .  S
O1454      H1518   0.991       .  S
O1455      C1475   1.291       .  A
O1456      C1477   1.283       .  A
O1457     Zr1467   2.396       .  S
O1457      C1476   1.275       .  A
O1458     Zr1466   2.491       .  S
O1458      C1477   1.295       .  A
O1459      C1476   1.288       .  A
O1460     Zr1468   2.439       .  S
O1460      C1475   1.283       .  A
O1461     Zr1466   2.425       .  S
O1461     Zr1468   2.392       .  S
O1462     Zr1467   2.392       .  S
O1462     Zr1468   2.376       .  S
O1462      H1497   0.966       .  S
O1463     Zr1466   2.417       .  S
O1463     Zr1483   2.364       .  S
O1463      H1500   0.962       .  S
O1464     Zr1467   2.390       .  S
O1464     Zr1483   2.396       .  S
Zr1465     O1490   2.445       .  S
Zr1465     O1484   2.473       .  S
Zr1465     O1492   2.378       .  S
Zr1465     O1480   2.376       .  S
Zr1465     O1471   2.405       .  S
Zr1465     O1472   2.407       .  S
Zr1465     O1473   2.373       .  S
Zr1465     O1474   2.364       .  S
Zr1466     O1485   2.435   1_655  S
Zr1466     O1478   2.435   1_655  S
Zr1466     O1479   2.522       .  S
Zr1466     O1472   2.397       .  S
Zr1466     O1473   2.402       .  S
Zr1467     O1469   2.436       .  S
Zr1467     O1491   2.436       .  S
Zr1467     O1493   2.418       .  S
Zr1467     O1471   2.382       .  S
Zr1467     O1474   2.382       .  S
Zr1468     O1494   2.436       .  S
Zr1468     O1495   2.436       .  S
Zr1468     O1470   2.437       .  S
Zr1468     O1471   2.411       .  S
Zr1468     O1472   2.395       .  S
O1469      H1506   0.990       .  S
O1470      H1501   0.990       .  S
O1470      H1515   0.990       .  S
O1472      H1498   0.965       .  S
O1473     Zr1483   2.384       .  S
O1474     Zr1483   2.357       .  S
O1474      H1499   0.966       .  S
C1475      C1636   1.502       .  S
C1476      C1588   1.427       .  S
C1477      C1590   1.450   1_655  S
O1478      H1514   0.990       .  S
O1479      C1481   1.301       .  A
O1480      C1481   1.273       .  A
C1481      C1602   1.451       .  S
O1482     Zr1483   2.440       .  S
O1482      H1511   0.990       .  S
Zr1483     O1486   2.437       .  S
Zr1483     O1487   2.439       .  S
Zr1483     O1488   2.422       .  S
O1484      C1489   1.290       .  A
O1485      H1502   0.990       .  S
O1485      H1517   0.990   1_455  S
O1486      H1503   0.990       .  S
O1487      H1507   0.990       .  S
O1487      H1516   0.990       .  S
O1488      C1489   1.280       .  A
C1489      C1585   1.454       .  S
O1490      H1509   0.990       .  S
O1490      H1513   0.990       .  S
O1491      H1505   0.990       .  S
O1491      H1512   0.990       .  S
O1492      C1496   1.276       .  A
O1493      C1496   1.280       .  A
O1494      H1504   0.990       .  S
O1495      H1508   0.990       .  S
C1496      C1615   1.448       .  S
Zr1519     O1520   2.430       .  S
Zr1519     O1521   2.446       .  S
Zr1519     O1522   2.439       .  S
Zr1519     O1525   2.395       .  S
Zr1519     O1527   2.377       .  S
Zr1519     O1528   2.378       .  S
Zr1519     O1529   2.401       .  S
Zr1519     O1530   2.412       .  S
O1520      H1576   0.989       .  S
O1520      H1584   0.986       .  S
O1521      C1541   1.285       .  A
O1522      C1543   1.279       .  A
O1523     Zr1533   2.464       .  S
O1523      C1542   1.290       .  A
O1524     Zr1532   2.443       .  S
O1524      C1543   1.282       .  A
O1525      C1542   1.275       .  A
O1526     Zr1534   2.448       .  S
O1526      C1541   1.285       .  A
O1527     Zr1532   2.407       .  S
O1527     Zr1534   2.382       .  S
O1528     Zr1533   2.395       .  S
O1528     Zr1534   2.362       .  S
O1528      H1563   0.966       .  S
O1529     Zr1532   2.418       .  S
O1529     Zr1549   2.346       .  S
O1529      H1566   0.960       .  S
O1530     Zr1533   2.390       .  S
O1530     Zr1549   2.403       .  S
Zr1531     O1556   2.445       .  S
Zr1531     O1550   2.472       .  S
Zr1531     O1558   2.390       .  S
Zr1531     O1546   2.413       .  S
Zr1531     O1537   2.416       .  S
Zr1531     O1538   2.404       .  S
Zr1531     O1539   2.372       .  S
Zr1531     O1540   2.378       .  S
Zr1532     O1551   2.436       .  S
Zr1532     O1544   2.436       .  S
Zr1532     O1545   2.454       .  S
Zr1532     O1538   2.400       .  S
Zr1532     O1539   2.405       .  S
Zr1533     O1535   2.435       .  S
Zr1533     O1557   2.435       .  S
Zr1533     O1559   2.462       .  S
Zr1533     O1537   2.397       .  S
Zr1533     O1540   2.394       .  S
Zr1534     O1560   2.435       .  S
Zr1534     O1561   2.435       .  S
Zr1534     O1536   2.436       .  S
Zr1534     O1537   2.416       .  S
Zr1534     O1538   2.387       .  S
O1535      H1572   0.990       .  S
O1536      H1567   0.990       .  S
O1536      H1581   0.990       .  S
O1538      H1564   0.964       .  S
O1539     Zr1549   2.392       .  S
O1540     Zr1549   2.340       .  S
O1540      H1565   0.964       .  S
C1541      C1643   1.454       .  S
C1542      C1748   1.433       .  S
C1543      C1670   1.434       .  S
O1544      H1580   0.990       .  S
O1545      C1547   1.288       .  A
O1546      C1547   1.280       .  A
C1547      C1610   1.431       .  S
O1548     Zr1549   2.440       .  S
O1548      H1577   0.990       .  S
Zr1549     O1552   2.437       .  S
Zr1549     O1553   2.441       .  S
Zr1549     O1554   2.423       .  S
O1550      C1555   1.290       .  A
O1551      H1568   0.990       .  S
O1551      H1583   0.990       .  S
O1552      H1569   0.990       .  S
O1553      H1573   0.990       .  S
O1553      H1582   0.989       .  S
O1554      C1555   1.280       .  A
C1555      C1586   1.454       .  S
O1556      H1575   0.990       .  S
O1556      H1579   0.990       .  S
O1557      H1571   0.990       .  S
O1557      H1578   0.990       .  S
O1558      C1562   1.276       .  A
O1559      C1562   1.289       .  A
O1560      H1570   0.990       .  S
O1561      H1574   0.990       .  S
C1562      C1604   1.424       .  S
C1585      C1586   1.218       .  T
C1587      C1588   1.201       .  T
C1589      C1590   1.216       .  T
C1591      C1592   1.217       .  T
C1593      C1594   1.204       .  T
C1595      C1596   1.219       .  T
C1597      C1598   1.216       .  T
C1599      C1600   1.204       .  T
C1601      C1602   1.219       .  T
C1603      C1604   1.202       .  T
C1605      C1606   1.222       .  T
C1607      C1608   1.217       .  T
C1609      C1610   1.203       .  T
C1611      C1612   1.360       .  D
C1611      H1613   1.086       .  S
C1612      H1614   1.087       .  S
C1615      C1616   1.343       .  D
C1615      H1617   1.087       .  S
C1616      H1618   1.088       .  S
C1619      C1620   1.216       .  T
C1621      C1622   1.343       .  D
C1621      H1623   1.088       .  S
C1622      H1624   1.087       .  S
C1625      C1626   1.198       .  T
C1627      C1628   1.342       .  D
C1627      H1629   1.088       .  S
C1628      H1630   1.086       .  S
C1631      C1632   1.215       .  T
C1633      C1634   1.205       .  T
C1635      C1636   1.360       .  D
C1635      H1637   1.086       .  S
C1636      H1638   1.087       .  S
C1639      C1640   1.343   1_455  D
C1639      H1641   1.087       .  S
C1640      H1642   1.088       .  S
C1643      C1644   1.217       .  T
C1645      C1646   1.206       .  T
C1647      C1648   1.206       .  T
C1649      C1650   1.216       .  T
C1651      C1652   1.206       .  T
C1653      C1654   1.205       .  T
C1655      C1656   1.221       .  T
C1657      C1658   1.205       .  T
C1659      C1660   1.216       .  T
C1661      C1662   1.204       .  T
C1663      C1664   1.207       .  T
C1665      C1666   1.218       .  T
C1667      C1668   1.217       .  T
C1669      C1670   1.207   1_556  T
C1671      C1672   1.201       .  T
C1673      C1674   1.206       .  T
C1675      C1676   1.219   1_556  T
C1677      C1678   1.203   1_554  T
C1679      C1680   1.216       .  T
C1681      C1682   1.216       .  T
C1683      C1684   1.205       .  T
C1685      C1686   1.193       .  T
C1687      C1688   1.199       .  T
C1689      C1690   1.343       .  D
C1689      H1691   1.087       .  S
C1690      H1692   1.087       .  S
C1693      C1694   1.343       .  D
C1693      H1695   1.087       .  S
C1694      H1696   1.088       .  S
C1697      C1698   1.216       .  T
C1699      C1700   1.192       .  T
C1701      C1702   1.205       .  T
C1703      C1704   1.203       .  T
C1705      C1706   1.360       .  D
C1705      H1707   1.086       .  S
C1706      H1708   1.087       .  S
C1709      C1710   1.343       .  D
C1709      H1711   1.087   1_545  S
C1710      H1712   1.088       .  S
C1713      C1714   1.216       .  T
C1715      C1716   1.343       .  D
C1715      H1717   1.088       .  S
C1716      H1718   1.087       .  S
C1719      C1720   1.205       .  T
C1721      C1722   1.360       .  D
C1721      H1723   1.086       .  S
C1722      H1724   1.087       .  S
C1725      C1726   1.217       .  T
C1727      C1728   1.205       .  T
C1729      C1730   1.192       .  T
C1731      C1732   1.201       .  T
C1733      C1734   1.344       .  D
C1733      H1735   1.087       .  S
C1734      H1736   1.086       .  S
C1737      C1738   1.338       .  D
C1737      H1739   1.088       .  S
C1738      H1740   1.087       .  S
C1741      C1742   1.207       .  T
C1743      C1744   1.217       .  T
C1745      C1746   1.194       .  T
C1747      C1748   1.204       .  T
C1749      C1750   1.201       .  T
C1751      C1752   1.343       .  D
C1751      H1753   1.087       .  S
C1752      H1754   1.087       .  S
C1755      C1756   1.343       .  D
C1755      H1757   1.088       .  S
C1756      H1758   1.087   1_565  S
C1759      C1760   1.217   1_455  T
