geometry optimzed in LAMMPS
_audit_creation_date              2020-11-30 
_audit_creation_method            'lammps2cif' 
_symmetry_space_group_name_H-M    'P1' 
_symmetry_Int_Tables_number       1 
_symmetry_cell_setting            triclinic 
loop_ 
_symmetry_equiv_pos_as_xyz 
  x,y,z 
_cell_length_a                    42.52774583 
_cell_length_b                    37.59068405179807 
_cell_length_c                    28.0417928879185 
_cell_angle_alpha                 89.44713822955283 
_cell_angle_beta                  89.94974064804643 
_cell_angle_gamma                 89.49197854656421 
loop_ 
_atom_site_label 
_atom_site_type_symbol 
_atom_site_fract_x 
_atom_site_fract_y 
_atom_site_fract_z 
_atom_site_charge 
N1          N  0.44568433  0.34273264  0.13974643    -0.25500
N2          N  0.43509860  0.30999783  0.14618136    -0.33300
C3          C  0.40407570  0.31126748  0.15441521     0.02900
C4          C  0.39414705  0.34621315  0.15271893     0.08900
C5          C  0.42113749  0.36572093  0.14341734    -0.04200
H6          H  0.38955342  0.28812162  0.16016401     0.09600
H7          H  0.42285590  0.39431047  0.13974483     0.10800
Cu8        Cu  0.46061350  0.26314770  0.13933910     0.44200
Cu9        Cu  0.49328429  0.35354361  0.12634591     0.42000
Cu10       Cu  0.03524180  0.26954196  0.10226995     0.43900
N11         N  0.48608394  0.21957392  0.11583483    -0.32900
N12         N  0.01478128  0.22055606  0.11038403    -0.27100
C13         C  0.02392294  0.18947337  0.09168091    -0.03200
C14         C  0.50016679  0.16749104  0.08626252     0.09000
C15         C  0.47729130  0.18536773  0.11201449     0.02800
H16         H  0.04420839  0.18607171  0.06878079     0.10400
H17         H  0.45453022  0.17529978  0.12249471     0.09500
N18         N  0.05606564  0.31838873  0.10822337    -0.34300
N19         N  0.04173407  0.34876250  0.11842850    -0.26500
C20         C  0.06403564  0.37351122  0.12649197    -0.03300
C21         C  0.09342793  0.35739610  0.12122172     0.06900
C22         C  0.08722957  0.32270591  0.10974104     0.05000
H23         H  0.05928835  0.40016424  0.13897952     0.10100
H24         H  0.10422864  0.30129373  0.10619387     0.08900
C25         C  0.24042799  0.40002480  0.22211907     0.31800
C26         C  0.24470785  0.45561222  0.15877144     0.31800
C27         C  0.21159847  0.40721637  0.19044221    -0.04400
C28         C  0.24567440  0.43692796  0.24452814    -0.05200
C29         C  0.26723231  0.39736722  0.18513135    -0.05000
C30         C  0.21358554  0.43530716  0.15834289    -0.04400
C31         C  0.24792533  0.46555607  0.21218876    -0.05200
C32         C  0.26975680  0.42611298  0.15338945    -0.05000
C33         C  0.18506453  0.43762014  0.13463997    -0.30400
N34         N  0.16622500  0.41121845  0.15124122     0.16100
C35         C  0.18218102  0.39281180  0.18551626    -0.30400
H36         H  0.17266738  0.37083654  0.20588855     0.18000
C37         C  0.25068556  0.49567294  0.23952359    -0.29400
N38         N  0.24986136  0.48680550  0.28663659     0.14800
C39         C  0.24669222  0.45079667  0.28999570    -0.29400
C40         C  0.30048184  0.42632959  0.13698175    -0.29700
N41         N  0.31616814  0.39788211  0.15568939     0.15300
H42         H  0.31117922  0.44706127  0.11556021     0.17900
C43         C  0.29622412  0.38056323  0.18559950    -0.29700
H44         H  0.30309864  0.35888529  0.20886889     0.17900
H45         H  0.24397136  0.43548467  0.32219543     0.17900
H46         H  0.17862780  0.45674195  0.10716871     0.18000
H47         H  0.25262530  0.52269516  0.22740279     0.17900
N48         N  0.45096210  0.62716857  0.28105599    -0.25500
N49         N  0.43824521  0.65937873  0.28362723    -0.33300
C50         C  0.40711515  0.65682392  0.28908642     0.02900
C51         C  0.39925127  0.62148825  0.29003606     0.08900
C52         C  0.42756898  0.60308766  0.28481112    -0.04200
H53         H  0.39139136  0.67930431  0.29391600     0.09600
H54         H  0.43106973  0.57455728  0.28594589     0.10800
Cu55       Cu  0.46124041  0.70709904  0.28438932     0.44200
Cu56       Cu  0.99822557  0.61805751  0.27691536     0.42000
Cu57       Cu  0.04699153  0.69826610  0.27184601     0.43900
N58         N  0.48629249  0.75343184  0.28452907    -0.32900
N59         N  0.02542792  0.74755878  0.28114770    -0.27100
C60         C  0.03673859  0.77985849  0.26988907    -0.03200
C61         C  0.01295114  0.80495638  0.27522132     0.09000
C62         C  0.47608527  0.78687793  0.27691344     0.02800
H63         H  0.05945178  0.78423527  0.25352131     0.10400
H64         H  0.45180930  0.79406290  0.26993702     0.09500
N65         N  0.06455683  0.64652838  0.26925150    -0.34300
N66         N  0.04748906  0.61731599  0.27213665    -0.26500
C67         C  0.06712651  0.58892235  0.27486586    -0.01700
C68         C  0.09793389  0.60082846  0.27374801     0.06900
C69         C  0.09519129  0.63755111  0.26977336     0.05000
H70         H  0.05956549  0.56173179  0.27982094     0.10100
H71         H  0.11392147  0.65679756  0.26967728     0.08900
C72         C  0.24878361  0.51716545  0.99228266     0.31800
C73         C  0.25143498  0.57094368  0.05692022     0.31800
C74         C  0.22169491  0.54480961  0.98972269    -0.04400
C75         C  0.24772450  0.50536606  0.04576282    -0.05200
C76         C  0.27857241  0.54031266  0.99048956    -0.05000
C77         C  0.22361909  0.57212062  0.02259894    -0.04400
C78         C  0.24923401  0.53330839  0.07840917    -0.05200
C79         C  0.27958967  0.56735608  0.02364898    -0.05000
C80         C  0.19847549  0.59450466  0.01554383    -0.30400
N81         N  0.18141878  0.57657256  0.31093928     0.16100
C82         C  0.19566353  0.54613832  0.29550061    -0.30400
H83         H  0.18741871  0.52995179  0.26643904     0.18000
C84         C  0.24848337  0.51896190  0.12367676    -0.29400
N85         N  0.24630381  0.48297172  0.12048498     0.14800
C86         C  0.24528503  0.47473922  0.07323771    -0.29400
C87         C  0.30774495  0.58426789  0.01877212    -0.29700
N88         N  0.32578462  0.56633570  0.31195048     0.15300
H89         H  0.31604742  0.60566508  0.04086860     0.17900
C90         C  0.30847537  0.53858989  0.29597033    -0.29700
H91         H  0.31625392  0.51962570  0.26956975     0.17900
H92         H  0.24237709  0.44794726  0.06077810     0.17900
H93         H  0.19327028  0.61852142  0.03517095     0.18000
H94         H  0.24898580  0.53428905  0.15540801     0.17900
C95         C  0.99464492  0.95535611  0.16530071     0.31800
C96         C  0.00150886  0.90203395  0.23136272     0.31800
C97         C  0.02558245  0.93366337  0.16269222    -0.04400
C98         C  0.99405988  0.96742041  0.21857786    -0.05200
C99         C  0.46665380  0.93007035  0.15581036    -0.05000
C100        C  0.02878076  0.90691216  0.19668580    -0.04400
C101        C  0.99763215  0.93958028  0.25190173    -0.05200
C102        C  0.46886985  0.90316883  0.18983377    -0.05000
C103        C  0.05734078  0.89072583  0.19002979    -0.30400
N104        N  0.07178932  0.90627639  0.15217441     0.16100
C105        C  0.05283419  0.93300362  0.13544411    -0.30400
H106        H  0.05833594  0.95034817  0.10561438     0.18000
C107        C  0.49668535  0.95612061  0.28749992    -0.29400
N108        N  0.49516133  0.99209130  0.28344309     0.14800
C109        C  0.49374980  0.00037559  0.23599366    -0.29400
C110        C  0.44395381  0.88086001  0.18373263    -0.29700
N111        N  0.42613402  0.89348687  0.14731519     0.15300
H112        H  0.43916774  0.85685001  0.20400951     0.17900
C113        C  0.43957060  0.92368711  0.12974561    -0.29700
H114        H  0.43091382  0.93901865  0.09957140     0.17900
H115        H  0.49308156  0.02740574  0.22310621     0.17900
H116        H  0.06712336  0.86944827  0.21180087     0.18000
H117        H  0.49994900  0.94091798  0.31954282     0.17900
N118        N  0.29321918  0.85497757  0.10636692    -0.25500
N119        N  0.31021253  0.82545256  0.10291086    -0.33300
C120        C  0.34084205  0.83376338  0.10349250     0.02900
C121        C  0.34353571  0.87031666  0.10785861     0.08900
C122        C  0.31282220  0.88290104  0.10925083    -0.04200
H123        H  0.35965149  0.81424574  0.10248039     0.09600
H124        H  0.30529275  0.91016472  0.11438521     0.10800
Cu125      Cu  0.29248699  0.77414051  0.10249110     0.44200
Cu126      Cu  0.24423324  0.85542779  0.11125640     0.42000
Cu127      Cu  0.21189661  0.76606741  0.12773662     0.43900
N128        N  0.27060135  0.72506586  0.10711660    -0.32900
N129        N  0.24057825  0.72191729  0.11809862    -0.27100
C130        C  0.23206634  0.68775538  0.11288269    -0.03200
C131        C  0.25808465  0.66834184  0.09819681     0.09000
C132        C  0.28192307  0.69306164  0.09424865     0.02800
H133        H  0.20800778  0.67864338  0.11391573     0.10400
H134        H  0.30489595  0.68874122  0.07860064     0.09500
N135        N  0.18539233  0.81258094  0.12648716    -0.34300
N136        N  0.19640468  0.84504906  0.11958463    -0.26500
C137        C  0.17215098  0.86845954  0.12114141    -0.01700
C138        C  0.14477582  0.84956347  0.12941481     0.06900
C139        C  0.15416446  0.81442895  0.13269087     0.05000
H140        H  0.17448066  0.89703086  0.11825972     0.10100
H141        H  0.13938536  0.79176160  0.14019747     0.08900
N142        N  0.29312326  0.12293117  0.27805952    -0.25500
N143        N  0.30953097  0.15265221  0.27968142    -0.33300
C144        C  0.34032522  0.14443336  0.27949674     0.02900
C145        C  0.34383871  0.10769465  0.27812960     0.08900
C146        C  0.31330820  0.09499237  0.27708836    -0.04200
H147        H  0.35863263  0.16406874  0.28206380     0.09600
H148        H  0.30628226  0.06739622  0.27751767     0.10800
Cu149      Cu  0.29085776  0.20392425  0.28624680     0.44200
Cu150      Cu  0.24398033  0.12200930  0.28036855     0.42000
Cu151      Cu  0.20815357  0.21111453  0.28915019     0.43900
N152        N  0.26795183  0.25308803  0.29125607    -0.32900
N153        N  0.23697477  0.25569864  0.29140467    -0.27100
C154        C  0.22864976  0.29035362  0.28976983    -0.03200
C155        C  0.25577550  0.31080873  0.28865760     0.09000
C156        C  0.28020170  0.28607645  0.28994098     0.02800
H157        H  0.20459715  0.29974955  0.28724378     0.10400
H158        H  0.30502593  0.29162955  0.28651534     0.09500
N159        N  0.18307566  0.16365709  0.28831888    -0.34300
N160        N  0.19554587  0.13135391  0.28517861    -0.26500
C161        C  0.17229807  0.10716550  0.28853045    -0.01700
C162        C  0.14396631  0.12525089  0.29409291     0.06900
C163        C  0.15181855  0.16083469  0.29380775     0.05000
H164        H  0.17596306  0.07865137  0.28911564     0.10100
H165        H  0.13599100  0.18315276  0.29908955     0.08900
C166        C  0.99234648  0.06841177  0.05988684     0.31800
C167        C  0.99255751  0.01407530  0.99645397     0.31800
C168        C  0.02135130  0.06556943  0.02798432    -0.04400
C169        C  0.99084376  0.03110579  0.08211922    -0.05200
C170        C  0.46441773  0.06887847  0.01491514    -0.05000
C171        C  0.02182695  0.03823692  0.99535045    -0.04400
C172        C  0.99099560  0.00266971  0.05021547    -0.05200
C173        C  0.46379891  0.04070485  0.98337474    -0.05000
C174        C  0.05482360  0.03965542  0.30301157    -0.30400
N175        N  0.07288913  0.06661126  0.31975981     0.16100
C176        C  0.04984807  0.08223970  0.02612243    -0.30400
H177        H  0.05717414  0.10347445  0.04926423     0.18000
C178        C  0.49153736  0.97356127  0.06981470    -0.29400
N179        N  0.49214676  0.98310421  0.11660951     0.14800
C180        C  0.49172714  0.01919320  0.11832113    -0.29400
C181        C  0.44196885  0.05298899  0.29305410    -0.29700
N182        N  0.42843085  0.08364116  0.30915481     0.15300
H183        H  0.43282621  0.03684494  0.26458173     0.17900
C184        C  0.43623710  0.08675561  0.01153955    -0.29700
H185        H  0.42880947  0.10864946  0.03379528     0.17900
H186        H  0.49279666  0.03522896  0.14954770     0.17900
H187        H  0.06123815  0.02235823  0.27388082     0.18000
H188        H  0.49178817  0.94625975  0.05857514     0.17900
C189        C  0.37337842  0.08641393  0.28363402    -0.14600
C190        C  0.40101378  0.10235543  0.29193395    -0.29800
H191        H  0.39371935  0.13453713  0.97915513     0.14400
H192        H  0.40184033  0.13115154  0.29283538     0.15000
C193        C  0.10342591  0.07732585  0.30246840    -0.14600
C194        C  0.11230404  0.11158024  0.30551302    -0.29800
H195        H  0.11914338  0.05760203  0.28710889     0.14400
H196        H  0.09529115  0.13119237  0.31770766     0.15000
C197        C  0.10234332  0.89606808  0.13426939    -0.14600
C198        C  0.11262214  0.86229457  0.13971002    -0.29800
H199        H  0.11708243  0.91587651  0.11714157     0.14400
H200        H  0.09658652  0.84243974  0.15368924     0.15000
C201        C  0.37255798  0.89103169  0.11617956    -0.14600
C202        C  0.39932439  0.87466038  0.12983827    -0.29800
H203        H  0.37119132  0.91989082  0.11560025     0.14400
H204        H  0.39966638  0.84593826  0.13412098     0.15000
C205        C  0.25687081  0.63537989  0.07066440    -0.14600
C206        C  0.25283128  0.60272390  0.08982665    -0.29800
H207        H  0.25992036  0.63820784  0.03233310     0.14400
H208        H  0.25065058  0.59921021  0.12815882     0.15000
C209        C  0.01100255  0.83804796  0.24707028    -0.14600
C210        C  0.00515164  0.87049551  0.26524450    -0.29800
H211        H  0.01412691  0.83530291  0.20881181     0.14400
H212        H  0.49805060  0.87761008  0.29581683     0.15000
C213        C  0.12699692  0.57936210  0.28270570    -0.14600
C214        C  0.15463725  0.59517134  0.29137784    -0.29800
H215        H  0.12511066  0.55069418  0.28665228     0.14400
H216        H  0.15246814  0.62847956  0.96686661     0.15000
C217        C  0.36733579  0.60899785  0.30132593    -0.14600
C218        C  0.35719881  0.57545439  0.29697523    -0.29800
H219        H  0.35094235  0.62930435  0.31339545     0.14400
H220        H  0.37237876  0.55522400  0.28155341     0.15000
C221        C  0.25885930  0.34947709  0.27710517    -0.14600
C222        C  0.23577759  0.36720724  0.25392164    -0.29800
H223        H  0.28174005  0.36159398  0.28097605     0.14400
H224        H  0.21335509  0.35405456  0.25134274     0.15000
C225        C  0.49642340  0.13416081  0.06035777    -0.14600
C226        C  0.49235708  0.10212059  0.08117675    -0.29800
H227        H  0.49961344  0.13576195  0.02192686     0.14400
H228        H  0.99095736  0.09658129  0.13100145     0.15000
C229        C  0.36111820  0.35752108  0.15994671    -0.14600
C230        C  0.34920277  0.38983585  0.14877355    -0.29800
H231        H  0.34549959  0.33699914  0.17307361     0.14400
H232        H  0.36427766  0.40980252  0.13266612     0.15000
C233        C  0.12493354  0.36944112  0.13545081    -0.14600
C234        C  0.13481985  0.40328805  0.13524209    -0.29800
H235        H  0.14158924  0.34849442  0.14497994     0.14400
H236        H  0.11971485  0.42448955  0.12161686     0.15000
N237        N  0.45366787  0.34707795  0.47197640    -0.25500
N238        N  0.44326838  0.31441021  0.47992668    -0.33300
C239        C  0.41240549  0.31576569  0.48942308     0.02900
C240        C  0.40237937  0.35063980  0.48712809     0.08900
C241        C  0.42913028  0.37005490  0.47599676    -0.04200
H242        H  0.39805754  0.29269948  0.49665015     0.09600
H243        H  0.43071462  0.39859282  0.47144368     0.10800
Cu244      Cu  0.46849434  0.26716214  0.47436824     0.44200
Cu245      Cu  0.50103788  0.35825567  0.45669142     0.42000
Cu246      Cu  0.04253919  0.27213929  0.43785110     0.43900
N247        N  0.49413836  0.22300416  0.45288080    -0.32900
N248        N  0.02241316  0.22310674  0.44628004    -0.27100
C249        C  0.03271689  0.19197651  0.42912694    -0.03200
C250        C  0.50889368  0.17078096  0.42413594     0.09000
C251        C  0.48531023  0.18884295  0.44830614     0.02800
H252        H  0.05355961  0.18884160  0.40733801     0.10400
H253        H  0.46216841  0.17895171  0.45700049     0.09500
N254        N  0.06392957  0.32052251  0.44410887    -0.34300
N255        N  0.04991015  0.35074686  0.45583109    -0.26500
C256        C  0.07239169  0.37510111  0.46442827    -0.03300
C257        C  0.10160367  0.35886814  0.45809402     0.06900
C258        C  0.09514736  0.32452838  0.44521212     0.05000
H259        H  0.06790467  0.40143098  0.47824983     0.10100
H260        H  0.11197928  0.30305757  0.44069827     0.08900
C261        C  0.24902281  0.40347970  0.55744211     0.31800
C262        C  0.25206644  0.45740084  0.49272845     0.31800
C263        C  0.21956700  0.40956255  0.52708400    -0.04400
C264        C  0.25425742  0.44047440  0.57858072    -0.05200
C265        C  0.27546557  0.40040900  0.52046079    -0.05000
C266        C  0.22100447  0.43699111  0.49407819    -0.04400
C267        C  0.25604513  0.46864922  0.54569827    -0.05200
C268        C  0.27724426  0.42815456  0.48733276    -0.05000
C269        C  0.19212058  0.43895649  0.47158983    -0.30400
N270        N  0.17363248  0.41284812  0.48979045     0.16100
C271        C  0.19015203  0.39495084  0.52399976    -0.30400
H272        H  0.18126864  0.37311407  0.54538215     0.18000
C273        C  0.25893120  0.49899080  0.57280526    -0.29400
N274        N  0.25794383  0.49026760  0.62013337     0.14800
C275        C  0.25503841  0.45437786  0.62372691    -0.29400
C276        C  0.30804693  0.42901830  0.47138057    -0.29700
N277        N  0.32443230  0.40185528  0.49200874     0.15300
H278        H  0.31827058  0.44942471  0.44887355     0.17900
C279        C  0.30494185  0.38509316  0.52315885    -0.29700
H280        H  0.31223927  0.36541428  0.54939409     0.17900
H281        H  0.25199270  0.43916652  0.65583508     0.17900
H282        H  0.18520451  0.45757201  0.44375691     0.18000
H283        H  0.26062837  0.52601987  0.56009226     0.17900
N284        N  0.45773912  0.63049361  0.62760484    -0.25500
N285        N  0.44618079  0.66292320  0.63376432    -0.33300
C286        C  0.41501628  0.66097263  0.64041879     0.02900
C287        C  0.40627881  0.62578620  0.63829255     0.08900
C288        C  0.43395824  0.60698520  0.63020156    -0.04200
H289        H  0.39977366  0.68364755  0.64673980     0.09600
H290        H  0.43676183  0.57845906  0.62732432     0.10800
Cu291      Cu  0.47196466  0.70940786  0.63226093     0.44200
Cu292      Cu  0.00467877  0.61499330  0.60554837     0.42000
Cu293      Cu  0.05118926  0.69580153  0.59370893     0.43900
N294        N  0.49990189  0.75329216  0.61954330    -0.32900
N295        N  0.02912756  0.74475205  0.60221553    -0.27100
C296        C  0.03870521  0.77682628  0.58690753    -0.03200
C297        C  0.01508540  0.80142329  0.59578672     0.09000
C298        C  0.49051469  0.78725300  0.61272890     0.02800
H299        H  0.05998051  0.78132123  0.56661085     0.10400
H300        H  0.46629480  0.79621554  0.61451006     0.09500
N301        N  0.07016297  0.64476455  0.59517407    -0.34300
N302        N  0.05380858  0.61517196  0.59994946    -0.26500
C303        C  0.07409737  0.58751465  0.60457469    -0.01700
C304        C  0.10459260  0.60035933  0.60278291     0.06900
C305        C  0.10099254  0.63681660  0.59657571     0.05000
H306        H  0.06718833  0.56028545  0.61123778     0.10100
H307        H  0.11924458  0.65663139  0.59545333     0.08900
C308        C  0.25095320  0.51424757  0.32413343     0.31800
C309        C  0.25328402  0.56949966  0.38647004     0.31800
C310        C  0.22304894  0.54089549  0.32176660    -0.04400
C311        C  0.25149991  0.50368686  0.37786030    -0.05200
C312        C  0.28005369  0.53839387  0.32013979    -0.05000
C313        C  0.22465747  0.56885803  0.35368007    -0.04400
C314        C  0.25266826  0.53242900  0.40925832    -0.05200
C315        C  0.28081797  0.56647140  0.35186456    -0.05000
C316        C  0.19903124  0.59047155  0.34618844    -0.30400
N317        N  0.18876969  0.57935187  0.63912617     0.16100
C318        C  0.20367597  0.54901818  0.62490694    -0.30400
H319        H  0.19620608  0.53239623  0.59580045     0.18000
C320        C  0.25330749  0.51939936  0.45509153    -0.29400
N321        N  0.25277836  0.48343744  0.45330196     0.14800
C322        C  0.25167612  0.47373372  0.40657160    -0.29400
C323        C  0.30904135  0.58320328  0.34643956    -0.29700
N324        N  0.33284217  0.56932561  0.65385454     0.15300
H325        H  0.31730960  0.60503183  0.36780157     0.17900
C326        C  0.31628214  0.54166359  0.63585505    -0.29700
H327        H  0.32493018  0.52333857  0.60924886     0.17900
H328        H  0.25121816  0.44642618  0.39535569     0.17900
H329        H  0.19369529  0.61501594  0.36451546     0.18000
H330        H  0.25344828  0.53530207  0.48657849     0.17900
C331        C  0.99609619  0.95463322  0.49603636     0.31800
C332        C  0.00214324  0.89904064  0.55828659     0.31800
C333        C  0.02681842  0.93303972  0.49231189    -0.04400
C334        C  0.99523421  0.96456519  0.54965017    -0.05200
C335        C  0.47179494  0.92964451  0.48487580    -0.05000
C336        C  0.02975505  0.90487769  0.52410449    -0.04400
C337        C  0.99848420  0.93578624  0.58144138    -0.05200
C338        C  0.47506107  0.90124498  0.51705290    -0.05000
C339        C  0.05875632  0.88950886  0.51687290    -0.30400
N340        N  0.07365807  0.90753105  0.48134746     0.16100
C341        C  0.05449340  0.93454370  0.46635521    -0.30400
H342        H  0.06027626  0.95378838  0.43883221     0.18000
C343        C  0.49877079  0.95305602  0.61919940    -0.29400
N344        N  0.49509145  0.98892046  0.61660368     0.14800
C345        C  0.49336811  0.99848198  0.56964018    -0.29400
C346        C  0.44583188  0.88625709  0.52238559    -0.29700
N347        N  0.42488873  0.90360800  0.49369566     0.15300
H348        H  0.43991573  0.86616145  0.54868588     0.17900
C349        C  0.44025421  0.93098150  0.47219303    -0.29700
H350        H  0.42898276  0.95167146  0.45103783     0.17900
H351        H  0.49073249  0.02565579  0.55765996     0.17900
H352        H  0.06866120  0.86736239  0.53690890     0.18000
H353        H  0.50288735  0.93753485  0.65093462     0.17900
N354        N  0.29685861  0.84460947  0.47796041    -0.25500
N355        N  0.30910155  0.81256973  0.48616651    -0.33300
C356        C  0.33979831  0.81556468  0.49586263     0.02900
C357        C  0.34799813  0.85086842  0.49319636     0.08900
C358        C  0.32017073  0.86883048  0.48176807    -0.04200
H359        H  0.35538696  0.79325571  0.50310977     0.09600
H360        H  0.31708640  0.89721117  0.47670868     0.10800
Cu361      Cu  0.28696470  0.76387181  0.47986084     0.44200
Cu362      Cu  0.24859443  0.85289375  0.46258963     0.42000
Cu363      Cu  0.20993349  0.76785092  0.44278713     0.43900
N364        N  0.26341942  0.71819741  0.46037613    -0.32900
N365        N  0.23395824  0.72028003  0.44604908    -0.27100
C366        C  0.22540335  0.68897955  0.42781930    -0.03200
C367        C  0.25061814  0.66575427  0.43117841     0.09000
C368        C  0.27456542  0.68523727  0.45153166     0.02800
H369        H  0.20354714  0.68455328  0.40914462     0.10400
H370        H  0.29900508  0.67733460  0.45471768     0.09500
N371        N  0.18687625  0.81606906  0.44362804    -0.34300
N372        N  0.19968156  0.84744103  0.45142157    -0.26500
C373        C  0.17612544  0.87169397  0.45596781    -0.01700
C374        C  0.14754624  0.85427331  0.45094076     0.06900
C375        C  0.15551730  0.81931161  0.44304558     0.05000
H376        H  0.17943002  0.89910362  0.46607803     0.10100
H377        H  0.13954969  0.79713022  0.44076376     0.08900
N378        N  0.29405574  0.12913797  0.63845977    -0.25500
N379        N  0.30543383  0.16149610  0.64455029    -0.33300
C380        C  0.33659351  0.15943543  0.65079005     0.02900
C381        C  0.34585558  0.12439535  0.64824045     0.08900
C382        C  0.31833307  0.10560356  0.64039731    -0.04200
H383        H  0.35156682  0.18211338  0.65660169     0.09600
H384        H  0.31603033  0.07708747  0.63725018     0.10800
Cu385      Cu  0.28116024  0.20928936  0.64227052     0.44200
Cu386      Cu  0.24570693  0.11914720  0.62939652     0.42000
Cu387      Cu  0.20389612  0.20319701  0.60999132     0.43900
N388        N  0.25507484  0.25444028  0.62676510    -0.32900
N389        N  0.22563795  0.25151194  0.61295117    -0.27100
C390        C  0.21524176  0.28305308  0.59651807    -0.03200
C391        C  0.23919189  0.30728931  0.60085826     0.09000
C392        C  0.26433200  0.28824041  0.61978474     0.02800
H393        H  0.19297949  0.28722055  0.57855569     0.10400
H394        H  0.28837630  0.29713876  0.62271998     0.09500
N395        N  0.18245572  0.15476843  0.61572898    -0.34300
N396        N  0.19642698  0.12362585  0.62318550    -0.26500
C397        C  0.17380685  0.09886953  0.62952950    -0.01700
C398        C  0.14463454  0.11581084  0.62595864     0.06900
C399        C  0.15125113  0.15096623  0.61733699     0.05000
H400        H  0.17822679  0.07129941  0.63892075     0.10100
H401        H  0.13451808  0.17276969  0.61488432     0.08900
C402        C  0.00113905  0.07004917  0.39607776     0.31800
C403        C  0.99639086  0.01692595  0.33088895     0.31800
C404        C  0.02906756  0.06556419  0.36246952    -0.04400
C405        C  0.99766222  0.03260030  0.41719517    -0.05200
C406        C  0.47182332  0.07449641  0.35102461    -0.05000
C407        C  0.02701725  0.03878598  0.32898611    -0.04400
C408        C  0.99489000  0.00502100  0.38425622    -0.05200
C409        C  0.46954657  0.04696066  0.31864262    -0.05000
C410        C  0.05404698  0.03360953  0.63618652    -0.30400
N411        N  0.07198156  0.06067040  0.65255339     0.16100
C412        C  0.05735532  0.08211855  0.35647941    -0.30400
H413        H  0.06617251  0.10369028  0.37781293     0.18000
C414        C  0.49394089  0.97723684  0.40301388    -0.29400
N415        N  0.49530860  0.98574700  0.45008105     0.14800
C416        C  0.49744187  0.02173592  0.45297318    -0.29400
C417        C  0.43879684  0.04344626  0.63380215    -0.29700
N418        N  0.42263850  0.07100546  0.65353324     0.15300
H419        H  0.42883423  0.02419708  0.60979764     0.17900
C420        C  0.44663508  0.09685364  0.34418318    -0.29700
H421        H  0.44166335  0.12103968  0.36356119     0.17900
H422        H  0.50073276  0.03680092  0.48486444     0.17900
H423        H  0.06136938  0.01454085  0.60962287     0.18000
H424        H  0.49233619  0.95018960  0.39122288     0.17900
C425        C  0.37863023  0.11230985  0.65549605    -0.14600
C426        C  0.38998651  0.07985335  0.64490340    -0.29800
H427        H  0.37195331  0.05759876  0.28529391     0.14400
H428        H  0.37483706  0.06043263  0.62832202     0.15000
C429        C  0.10349552  0.06921886  0.63762386    -0.14600
C430        C  0.11277192  0.10323929  0.63743765    -0.29800
H431        H  0.11932720  0.04825271  0.62581054     0.14400
H432        H  0.09550955  0.12380280  0.64547873     0.15000
C433        C  0.10490112  0.89966278  0.46405608    -0.14600
C434        C  0.11529300  0.86583724  0.46324119    -0.29800
H435        H  0.11979061  0.92110853  0.45143633     0.14400
H436        H  0.09891945  0.84477993  0.47222614     0.15000
C437        C  0.38053313  0.86344264  0.50094249    -0.14600
C438        C  0.39175321  0.89566085  0.48858278    -0.29800
H439        H  0.39673267  0.84351952  0.51494718     0.14400
H440        H  0.37624883  0.91512388  0.47169501     0.15000
C441        C  0.25431688  0.63411678  0.40153675    -0.14600
C442        C  0.25445583  0.60096891  0.41965186    -0.29800
H443        H  0.25355145  0.63807751  0.36311195     0.14400
H444        H  0.25411311  0.59683024  0.45802342     0.15000
C445        C  0.01113448  0.83488214  0.56934949    -0.14600
C446        C  0.00558594  0.86647333  0.58991266    -0.29800
H447        H  0.01381872  0.83352138  0.53085539     0.14400
H448        H  0.50322931  0.87423883  0.62254052     0.15000
C449        C  0.13412832  0.58006533  0.61268266    -0.14600
C450        C  0.16173005  0.59669459  0.61846490    -0.29800
H451        H  0.13272289  0.55164211  0.61955186     0.14400
H452        H  0.15584807  0.62396530  0.29049366     0.15000
C453        C  0.37405835  0.61304155  0.64694199    -0.14600
C454        C  0.36444149  0.57935193  0.64100534    -0.29800
H455        H  0.35723636  0.63297095  0.65874428     0.14400
H456        H  0.38029431  0.55956996  0.62608464     0.15000
C457        C  0.24125388  0.33987040  0.57237998    -0.14600
C458        C  0.24730656  0.37187034  0.59080456    -0.29800
H459        H  0.23644322  0.33755646  0.53446932     0.14400
H460        H  0.25106995  0.37490229  0.62884008     0.15000
C461        C  0.50564379  0.13768437  0.39742721    -0.14600
C462        C  0.50141793  0.10537073  0.41743861    -0.29800
H463        H  0.50863068  0.13985036  0.35900357     0.14400
H464        H  0.00160442  0.09747941  0.46789301     0.15000
C465        C  0.36950201  0.36196594  0.49563452    -0.14600
C466        C  0.35745098  0.39421618  0.48474901    -0.29800
H467        H  0.35399082  0.34156491  0.50948106     0.14400
H468        H  0.37220616  0.41415189  0.46789033     0.15000
C469        C  0.13310791  0.37063445  0.47252731    -0.14600
C470        C  0.14221801  0.40463984  0.47451841    -0.29800
H471        H  0.15022771  0.34979094  0.48048841     0.14400
H472        H  0.12655971  0.42588678  0.46255040     0.15000
N473        N  0.45975757  0.34776490  0.78833707    -0.25500
N474        N  0.44622408  0.31618681  0.78867275    -0.33300
C475        C  0.41513570  0.32004707  0.79370177     0.02900
C476        C  0.40801216  0.35563877  0.79674352     0.08900
C477        C  0.43684767  0.37283455  0.79308925    -0.04200
H478        H  0.39891657  0.29814320  0.79717578     0.09600
H479        H  0.44099661  0.40104922  0.79641648     0.10800
Cu480      Cu  0.46802182  0.26733264  0.78734864     0.44200
Cu481      Cu  0.50929428  0.35278021  0.78679125     0.42000
Cu482      Cu  0.04860094  0.26056432  0.79767209     0.43900
N483        N  0.49062681  0.21903818  0.78396844    -0.32900
N484        N  0.02254566  0.21493195  0.79169574    -0.27100
C485        C  0.03156617  0.18210716  0.77851410    -0.03200
C486        C  0.50393688  0.16401324  0.76558927     0.09000
C487        C  0.47903212  0.18734840  0.77166678     0.02800
H488        H  0.05547597  0.17459822  0.76965688     0.10400
H489        H  0.45471431  0.18279882  0.76237766     0.09500
N490        N  0.07168125  0.30846024  0.79993835    -0.34300
N491        N  0.05931252  0.34091391  0.79725415    -0.26500
C492        C  0.08304881  0.36459634  0.80046687    -0.03300
C493        C  0.11119939  0.34573828  0.80559792     0.06900
C494        C  0.10287092  0.31054654  0.80518938     0.05000
H495        H  0.07994515  0.39318753  0.80065747     0.10100
H496        H  0.11844067  0.28778113  0.80915802     0.08900
C497        C  0.25927015  0.40351315  0.89068637     0.31800
C498        C  0.25621694  0.45832709  0.82627466     0.31800
C499        C  0.23345166  0.40082131  0.85246150    -0.04400
C500        C  0.25324638  0.44055932  0.91203059    -0.05200
C501        C  0.28886683  0.40981839  0.86058035    -0.05000
C502        C  0.23157906  0.42911131  0.82016281    -0.04400
C503        C  0.25150184  0.46900178  0.87937602    -0.05200
C504        C  0.28747195  0.43756242  0.82779932    -0.05000
C505        C  0.20206883  0.42825314  0.79961808    -0.30400
N506        N  0.18653570  0.39952991  0.81690721     0.16100
C507        C  0.20536682  0.38294795  0.84953366    -0.30400
H508        H  0.19809626  0.36119696  0.87229766     0.18000
C509        C  0.24796015  0.49927454  0.90664588    -0.29400
N510        N  0.24818137  0.49035691  0.95392659     0.14800
C511        C  0.25166003  0.45438830  0.95725962    -0.29400
C512        C  0.31619264  0.43852864  0.80453645    -0.29700
N513        N  0.33462946  0.41173212  0.82210684     0.15300
H514        H  0.32295648  0.45686440  0.77643231     0.17900
C515        C  0.31815847  0.39435300  0.85662619    -0.29700
H516        H  0.32702320  0.37218873  0.87763954     0.17900
H517        H  0.25521463  0.43909679  0.98932063     0.17900
H518        H  0.19193361  0.44829478  0.77614886     0.18000
H519        H  0.24643770  0.52637243  0.89404727     0.17900
N520        N  0.44940247  0.62755019  0.95646747    -0.25500
N521        N  0.43878486  0.66014484  0.96481072    -0.33300
C522        C  0.40751311  0.65910490  0.97087894     0.02900
C523        C  0.39776960  0.62442522  0.96618125     0.08900
C524        C  0.42491581  0.60495656  0.95715147    -0.04200
H525        H  0.39290677  0.68202054  0.97879440     0.09600
H526        H  0.42691223  0.57649176  0.95254251     0.10800
Cu527      Cu  0.46545868  0.70612823  0.96697996     0.44200
Cu528      Cu  0.99698495  0.61580678  0.93731358     0.42000
Cu529      Cu  0.04325670  0.69778141  0.93854371     0.43900
N530        N  0.49421034  0.74929341  0.95300401    -0.32900
N531        N  0.02071558  0.74627813  0.94575436    -0.27100
C532        C  0.03225212  0.77885216  0.93727026    -0.03200
C533        C  0.00770544  0.80320909  0.93863474     0.09000
C534        C  0.48626308  0.78398798  0.94880207     0.02800
H535        H  0.05595267  0.78387408  0.92501355     0.10400
H536        H  0.46277087  0.79443932  0.95436240     0.09500
N537        N  0.06232753  0.64715093  0.93525120    -0.34300
N538        N  0.04630090  0.61714683  0.93534891    -0.26500
C539        C  0.06693291  0.58965748  0.93783665    -0.01700
C540        C  0.09720892  0.60312791  0.93966624     0.06900
C541        C  0.09318049  0.63970592  0.93752402     0.05000
H542        H  0.06034647  0.56198473  0.94062959     0.10100
H543        H  0.11112009  0.65983077  0.93947429     0.08900
C544        C  0.25769926  0.51723070  0.65818343     0.31800
C545        C  0.25724351  0.57186178  0.72142700     0.31800
C546        C  0.23019579  0.54410537  0.65314199    -0.04400
C547        C  0.25550745  0.50611764  0.71186004    -0.05200
C548        C  0.28709350  0.54092930  0.65782487    -0.05000
C549        C  0.23051778  0.57196093  0.68519748    -0.04400
C550        C  0.25495548  0.53460024  0.74378732    -0.05200
C551        C  0.28658520  0.56852304  0.69025763    -0.05000
C552        C  0.20515149  0.59354925  0.67552692    -0.30400
N553        N  0.18068262  0.58151930  0.97987010     0.16100
C554        C  0.19445843  0.55106623  0.96356635    -0.30400
H555        H  0.18568655  0.53518440  0.93456874     0.18000
C556        C  0.25480419  0.52101968  0.78952630    -0.29400
N557        N  0.25522311  0.48498284  0.78723639     0.14800
C558        C  0.25622894  0.47585239  0.74025999    -0.29400
C559        C  0.31488815  0.58547896  0.68751230    -0.29700
N560        N  0.32414219  0.56875600  0.98292530     0.15300
H561        H  0.32221504  0.60726847  0.70971775     0.17900
C562        C  0.30676412  0.54145791  0.96567296    -0.29700
H563        H  0.31414626  0.52374304  0.93752096     0.17900
H564        H  0.25838805  0.44871138  0.72876532     0.17900
H565        H  0.19887437  0.61786317  0.69375109     0.18000
H566        H  0.25603942  0.53662549  0.82125054     0.17900
C567        C  0.99536882  0.95384547  0.83052793     0.31800
C568        C  0.99992433  0.90001179  0.89576309     0.31800
C569        C  0.02565887  0.93125274  0.82841689    -0.04400
C570        C  0.99453527  0.96552184  0.88379847    -0.05200
C571        C  0.46953598  0.92591687  0.81969112    -0.05000
C572        C  0.02776768  0.90408386  0.86186906    -0.04400
C573        C  0.99686270  0.93738389  0.91683048    -0.05200
C574        C  0.47269497  0.89809929  0.85229959    -0.05000
C575        C  0.05655830  0.88800520  0.85676396    -0.30400
N576        N  0.07219529  0.90439798  0.82062319     0.16100
C577        C  0.05372225  0.93129287  0.80334420    -0.30400
H578        H  0.06027809  0.94952353  0.77500096     0.18000
C579        C  0.49585267  0.95114776  0.95335568    -0.29400
N580        N  0.49226000  0.98708746  0.94966439     0.14800
C581        C  0.49088025  0.99568003  0.90239393    -0.29400
C582        C  0.44788009  0.87567719  0.84589532    -0.29700
N583        N  0.42918222  0.88938734  0.81113461     0.15300
H584        H  0.44332796  0.85138706  0.86568845     0.17900
C585        C  0.44200255  0.92020513  0.79466683    -0.29700
H586        H  0.43222270  0.93685986  0.76659282     0.17900
H587        H  0.48765475  0.02257843  0.88971352     0.17900
H588        H  0.06580635  0.86657331  0.87880284     0.18000
H589        H  0.49889339  0.93599168  0.98561381     0.17900
N590        N  0.29416333  0.85529974  0.77317338    -0.25500
N591        N  0.31062998  0.82531263  0.77258409    -0.33300
C592        C  0.34134596  0.83267312  0.77472286     0.02900
C593        C  0.34483727  0.86920208  0.77699555     0.08900
C594        C  0.31435674  0.88275792  0.77567317    -0.04200
H595        H  0.35954961  0.81245219  0.77609294     0.09600
H596        H  0.30736076  0.91039925  0.77850381     0.10800
Cu597      Cu  0.29234545  0.77464870  0.77330645     0.44200
Cu598      Cu  0.24501155  0.85597295  0.77574506     0.42000
Cu599      Cu  0.21216463  0.76523673  0.79215041     0.43900
N600        N  0.27156018  0.72529684  0.77578001    -0.32900
N601        N  0.24128646  0.72139542  0.78421498    -0.27100
C602        C  0.23356010  0.68719683  0.77720969    -0.03200
C603        C  0.26042261  0.66874993  0.76382850     0.09000
C604        C  0.28391862  0.69389402  0.76270691     0.02800
H605        H  0.20967977  0.67754511  0.77597617     0.10400
H606        H  0.30743290  0.69041135  0.74862078     0.09500
N607        N  0.18639253  0.81216752  0.79208243    -0.34300
N608        N  0.19734411  0.84475261  0.78566614    -0.26500
C609        C  0.17313208  0.86809566  0.78912636    -0.01700
C610        C  0.14593464  0.84902487  0.79804408     0.06900
C611        C  0.15532145  0.81390297  0.79969884     0.05000
H612        H  0.17539403  0.89670313  0.78692370     0.10100
H613        H  0.14066061  0.79110763  0.80703973     0.08900
N614        N  0.29155540  0.13502955  0.96400142    -0.25500
N615        N  0.30440092  0.16700261  0.96359332    -0.33300
C616        C  0.33581237  0.16363616  0.96375155     0.02900
C617        C  0.34370963  0.12800093  0.96431736     0.08900
C618        C  0.31503014  0.11037712  0.96441097    -0.04200
H619        H  0.35187618  0.18576685  0.96524156     0.09600
H620        H  0.31149945  0.08195415  0.96676903     0.10800
Cu621      Cu  0.28069834  0.21533311  0.96674930     0.44200
Cu622      Cu  0.24233590  0.12793187  0.96744279     0.42000
Cu623      Cu  0.19964962  0.21506961  0.97395068     0.43900
N624        N  0.25510126  0.26241462  0.96937542    -0.32900
N625        N  0.22416029  0.26264659  0.97197527    -0.27100
C626        C  0.21366056  0.29652707  0.96837356    -0.03200
C627        C  0.23935406  0.31873359  0.96292564     0.09000
C628        C  0.26528580  0.29596336  0.96399579     0.02800
H629        H  0.18911576  0.30419356  0.96620107     0.10400
H630        H  0.28966009  0.30280487  0.95843591     0.09500
N631        N  0.17875157  0.16525671  0.97479393    -0.34300
N632        N  0.19292384  0.13376323  0.97229926    -0.26500
C633        C  0.17061981  0.10822308  0.97504261    -0.01700
C634        C  0.14134617  0.12475236  0.97948533     0.06900
C635        C  0.14768446  0.16062797  0.97932954     0.05000
H636        H  0.17543046  0.07991545  0.97536371     0.10100
H637        H  0.13078307  0.18210011  0.98321373     0.08900
C638        C  0.99855997  0.06661952  0.72504923     0.31800
C639        C  0.99560917  0.01178740  0.66249623     0.31800
C640        C  0.02669690  0.06243487  0.69167018    -0.04400
C641        C  0.99620046  0.02945494  0.74767514    -0.05200
C642        C  0.47054311  0.07010862  0.68512488    -0.05000
C643        C  0.02545638  0.03456633  0.65978554    -0.04400
C644        C  0.99455749  0.00093259  0.71605352    -0.05200
C645        C  0.46897048  0.04278438  0.65226433    -0.05000
C646        C  0.05134373  0.03898798  0.97386630    -0.30400
N647        N  0.06806575  0.06640329  0.99252781     0.16100
C648        C  0.05545368  0.07817918  0.68669544    -0.30400
H649        H  0.06416333  0.10001624  0.70765529     0.18000
C650        C  0.49256299  0.97261368  0.73615125    -0.29400
N651        N  0.49348861  0.98111936  0.78335515     0.14800
C652        C  0.49586201  0.01699308  0.78638195    -0.29400
C653        C  0.43438648  0.04183958  0.96181101    -0.29700
N654        N  0.41802541  0.07046287  0.97866456     0.15300
H655        H  0.42519270  0.02262311  0.93707115     0.17900
C656        C  0.44176875  0.08688112  0.68565057    -0.29700
H657        H  0.43465894  0.10724061  0.71054579     0.17900
H658        H  0.49931085  0.03203082  0.81816441     0.17900
H659        H  0.06014716  0.02063117  0.94741690     0.18000
H660        H  0.49108198  0.94565336  0.72371507     0.17900
C661        C  0.37633359  0.11456025  0.97079253    -0.14600
C662        C  0.38591339  0.08041634  0.96721285    -0.29800
H663        H  0.39459732  0.13222690  0.66885271     0.14400
H664        H  0.36960237  0.06021888  0.95555677     0.15000
C665        C  0.09994321  0.07668748  0.98061388    -0.14600
C666        C  0.10951690  0.11030028  0.98824326    -0.29800
H667        H  0.11587180  0.05745884  0.96464159     0.14400
H668        H  0.09237234  0.12967091  0.00060512     0.15000
C669        C  0.10338631  0.89506068  0.80464911    -0.14600
C670        C  0.11381693  0.86134238  0.80914435    -0.29800
H671        H  0.11821647  0.91533966  0.78874811     0.14400
H672        H  0.09776771  0.84108199  0.82196223     0.15000
C673        C  0.37438545  0.88906317  0.78497157    -0.14600
C674        C  0.40145798  0.87174174  0.79488423    -0.29800
H675        H  0.37344469  0.91791142  0.78634299     0.14400
H676        H  0.40179891  0.84292470  0.79657721     0.15000
C677        C  0.26091219  0.63624859  0.73553825    -0.14600
C678        C  0.25690531  0.60357108  0.75419776    -0.29800
H679        H  0.26537123  0.63937349  0.69756241     0.14400
H680        H  0.25341964  0.59999563  0.79230104     0.15000
C681        C  0.00716706  0.83609879  0.91060971    -0.14600
C682        C  0.00233140  0.86843468  0.92925682    -0.29800
H683        H  0.01021034  0.83335214  0.87232065     0.14400
H684        H  0.50040659  0.87049306  0.95777494     0.15000
C685        C  0.12690260  0.58300382  0.94870988    -0.14600
C686        C  0.15307733  0.59982956  0.96265136    -0.29800
H687        H  0.12658908  0.55414544  0.94778919     0.14400
H688        H  0.16268764  0.62538901  0.61464581     0.15000
C689        C  0.36534104  0.61231857  0.97450402    -0.14600
C690        C  0.35527910  0.57886078  0.96790221    -0.29800
H691        H  0.34897401  0.63226252  0.98763729     0.14400
H692        H  0.37063463  0.55913530  0.95175901     0.15000
C693        C  0.23817987  0.35670654  0.94754331    -0.14600
C694        C  0.26240067  0.37147666  0.92391657    -0.29800
H695        H  0.21574911  0.37065541  0.94898993     0.14400
H696        H  0.28447979  0.35699948  0.92300713     0.15000
C697        C  0.50279018  0.13254144  0.73559540    -0.14600
C698        C  0.49996990  0.09953040  0.75346943    -0.29800
H699        H  0.50388177  0.13676153  0.69722938     0.14400
H700        H  0.99935218  0.09346468  0.79679944     0.15000
C701        C  0.37630777  0.36877383  0.80952716    -0.14600
C702        C  0.36605745  0.40262977  0.80645637    -0.29800
H703        H  0.35995579  0.34849832  0.82136657     0.14400
H704        H  0.38097583  0.42301557  0.79099824     0.15000
C705        C  0.14365329  0.35766523  0.81430254    -0.14600
C706        C  0.15425720  0.39076176  0.80658610    -0.29800
H707        H  0.16006685  0.33721146  0.82630010     0.14400
H708        H  0.13874929  0.41092869  0.79125384     0.15000
N709        N  0.94480805  0.33979773  0.13948846    -0.25500
N710        N  0.93472675  0.30720126  0.14878237    -0.33300
C711        C  0.90348604  0.30789968  0.15480243     0.02900
C712        C  0.89286492  0.34232241  0.14900065     0.08900
C713        C  0.91965636  0.36212695  0.13934548    -0.04200
H714        H  0.88938014  0.28469590  0.16238017     0.09600
H715        H  0.92084329  0.39051327  0.13302662     0.10800
Cu716      Cu  0.96107133  0.26084014  0.14974158     0.44200
Cu717      Cu  0.99258830  0.35160246  0.12768485     0.42000
Cu718      Cu  0.53408989  0.27295217  0.08715573     0.43900
N719        N  0.98707752  0.21669463  0.13075079    -0.32900
N720        N  0.51317193  0.22390684  0.09372096    -0.27100
C721        C  0.52233837  0.19283933  0.07487909    -0.03200
C722        C  0.00098140  0.16465563  0.10120639     0.09000
C723        C  0.97778075  0.18278980  0.12588846     0.02800
H724        H  0.54245401  0.18952437  0.05161565     0.10400
H725        H  0.95437890  0.17338801  0.13394386     0.09500
N726        N  0.55583427  0.32076162  0.09932412    -0.34300
N727        N  0.54199149  0.35022045  0.11453590    -0.26500
C728        C  0.56456726  0.37384748  0.12568337    -0.03300
C729        C  0.59368822  0.35806894  0.11719256     0.06900
C730        C  0.58709712  0.32462423  0.10068487     0.05000
H731        H  0.56020672  0.39925500  0.14235287     0.10100
H732        H  0.60388879  0.30355147  0.09345974     0.08900
C733        C  0.74067503  0.39847637  0.22025789     0.31800
C734        C  0.74509547  0.45364864  0.15658163     0.31800
C735        C  0.71140462  0.40641891  0.18992822    -0.04400
C736        C  0.74738693  0.43507342  0.24228610    -0.05200
C737        C  0.76659374  0.39476451  0.18204213    -0.05000
C738        C  0.71350300  0.43439898  0.15766654    -0.04400
C739        C  0.74975911  0.46352617  0.20974344    -0.05200
C740        C  0.76919749  0.42335288  0.15007216    -0.05000
C741        C  0.68495546  0.43702570  0.13426759    -0.30400
N742        N  0.66600589  0.41084538  0.15110533     0.16100
C743        C  0.68188961  0.39222398  0.18523707    -0.30400
H744        H  0.67241250  0.36999750  0.20517419     0.18000
C745        C  0.75330814  0.49352758  0.23686810    -0.29400
N746        N  0.75278055  0.48479312  0.28398613     0.14800
C747        C  0.74894025  0.44893853  0.28772133    -0.29400
C748        C  0.79959004  0.42269312  0.13247007    -0.29700
N749        N  0.81493344  0.39383947  0.15060754     0.15300
H750        H  0.81043580  0.44321618  0.11086097     0.17900
C751        C  0.79516433  0.37708956  0.18137553    -0.29700
H752        H  0.80202555  0.35544699  0.20477949     0.17900
H753        H  0.74535349  0.43404796  0.32015292     0.17900
H754        H  0.67868647  0.45593527  0.10644487     0.18000
H755        H  0.75505478  0.52065953  0.22451422     0.17900
N756        N  0.95012241  0.62910552  0.28583982    -0.25500
N757        N  0.93924585  0.66155794  0.29421562    -0.33300
C758        C  0.90799766  0.66027332  0.30056061     0.02900
C759        C  0.89835788  0.62552243  0.29604194     0.08900
C760        C  0.92569840  0.60628500  0.28661514    -0.04200
H761        H  0.89334279  0.68305239  0.30894330     0.09600
H762        H  0.92786657  0.57781053  0.28224670     0.10800
Cu763      Cu  0.96619750  0.70720907  0.29824068     0.44200
Cu764      Cu  0.50000450  0.61877876  0.27693676     0.42000
Cu765      Cu  0.54112319  0.70506132  0.27930000     0.43900
N766        N  0.99547246  0.75089876  0.29269605    -0.32900
N767        N  0.51719353  0.75268857  0.28259929    -0.27100
C768        C  0.52765048  0.78566731  0.27371672    -0.03200
C769        C  0.50197264  0.80836993  0.27034718     0.09000
C770        C  0.98705873  0.78545843  0.28952911     0.02800
H771        H  0.55163430  0.79178199  0.26391494     0.10400
H772        H  0.96297523  0.79494305  0.29070708     0.09500
N773        N  0.56283343  0.65601380  0.27760022    -0.34300
N774        N  0.54933066  0.62440246  0.27767406    -0.26500
C775        C  0.57219979  0.59926990  0.28261421    -0.01700
C776        C  0.60101706  0.61641726  0.28587909     0.06900
C777        C  0.59393094  0.65203999  0.28226573     0.05000
H778        H  0.56799417  0.57105822  0.28659588     0.10100
H779        H  0.61014961  0.67387808  0.28583694     0.08900
C780        C  0.74848757  0.51525596  0.99019863     0.31800
C781        C  0.75116186  0.56899275  0.05503568     0.31800
C782        C  0.72134071  0.54281870  0.98790381    -0.04400
C783        C  0.74754711  0.50334329  0.04357019    -0.05200
C784        C  0.77821661  0.53836025  0.98860905    -0.05000
C785        C  0.72326435  0.57015433  0.02081243    -0.04400
C786        C  0.74900108  0.53127359  0.07629080    -0.05200
C787        C  0.77932813  0.56546692  0.02170309    -0.05000
C788        C  0.69755285  0.59186274  0.01472010    -0.30400
N789        N  0.67463185  0.56094270  0.31293802     0.16100
C790        C  0.69286621  0.53375332  0.29656809    -0.30400
H791        H  0.68547454  0.51422882  0.27086615     0.18000
C792        C  0.74841182  0.51687113  0.12141886    -0.29400
N793        N  0.74658032  0.48092063  0.11823909     0.14800
C794        C  0.74545293  0.47266643  0.07096216    -0.29400
C795        C  0.80798955  0.58148798  0.01755886    -0.29700
N796        N  0.82334705  0.57054921  0.30924305     0.15300
H797        H  0.81657086  0.60271722  0.03970594     0.17900
C798        C  0.80786197  0.54141013  0.29332049    -0.29700
H799        H  0.81763752  0.52190266  0.26920889     0.17900
H800        H  0.74285106  0.44586516  0.05844178     0.17900
H801        H  0.69209976  0.61562423  0.03474930     0.18000
H802        H  0.74850280  0.53229657  0.15340590     0.17900
C803        C  0.49389688  0.95696838  0.15618892     0.31800
C804        C  0.49731363  0.90402295  0.22287142     0.31800
C805        C  0.52362584  0.93300608  0.15416138    -0.04400
C806        C  0.49389601  0.96948625  0.20922907    -0.05200
C807        C  0.96902597  0.92656080  0.16498696    -0.05000
C808        C  0.52498181  0.90622523  0.18835640    -0.04400
C809        C  0.49561687  0.94173552  0.24278745    -0.05200
C810        C  0.97306237  0.89939188  0.19835918    -0.05000
C811        C  0.55316977  0.88867237  0.18358716    -0.30400
N812        N  0.56943685  0.90379288  0.14708463     0.16100
C813        C  0.55173677  0.93121221  0.12904531    -0.30400
H814        H  0.55898379  0.94884633  0.10043213     0.18000
C815        C  0.99861316  0.95408750  0.29667935    -0.29400
N816        N  0.99464543  0.98993427  0.29285290     0.14800
C817        C  0.99219040  0.99818417  0.24550790    -0.29400
C818        C  0.94860273  0.87621441  0.19341700    -0.29700
N819        N  0.92918605  0.88876074  0.15878064     0.15300
H820        H  0.94485346  0.85211860  0.21403655     0.17900
C821        C  0.94127960  0.91961393  0.14094618    -0.29700
H822        H  0.93093553  0.93543770  0.11248963     0.17900
H823        H  0.98978363  0.02512944  0.23268465     0.17900
H824        H  0.56167917  0.86736871  0.20650275     0.18000
H825        H  0.00421437  0.93936979  0.32854275     0.17900
N826        N  0.79432848  0.85165285  0.11892205    -0.25500
N827        N  0.81093519  0.82167565  0.11937252    -0.33300
C828        C  0.84161881  0.82934483  0.12314361     0.02900
C829        C  0.84488835  0.86595198  0.12529714     0.08900
C830        C  0.81436497  0.87921950  0.12234022    -0.04200
H831        H  0.86002836  0.80937209  0.12503798     0.09600
H832        H  0.80719858  0.90686643  0.12405787     0.10800
Cu833      Cu  0.79275400  0.77047146  0.11726341     0.44200
Cu834      Cu  0.74488697  0.85331343  0.11723797     0.42000
Cu835      Cu  0.71099473  0.76410367  0.12622776     0.43900
N836        N  0.77008882  0.72166047  0.11511218    -0.32900
N837        N  0.73931612  0.71928078  0.11981208    -0.27100
C838        C  0.73055534  0.68565565  0.11098686    -0.03200
C839        C  0.75711957  0.66567602  0.10040870     0.09000
C840        C  0.78169167  0.68962311  0.10265960     0.02800
H841        H  0.70640394  0.67742117  0.10682536     0.10400
H842        H  0.80570024  0.68491981  0.09138647     0.09500
N843        N  0.68497111  0.81099216  0.12623389    -0.34300
N844        N  0.69636068  0.84353792  0.12198154    -0.26500
C845        C  0.67213765  0.86706295  0.12449772    -0.01700
C846        C  0.64445768  0.84814254  0.13076905     0.06900
C847        C  0.65367894  0.81289293  0.13179691     0.05000
H848        H  0.67464862  0.89567430  0.12392626     0.10100
H849        H  0.63870843  0.79009910  0.13740288     0.08900
N850        N  0.79541804  0.12454654  0.28563638    -0.25500
N851        N  0.81175566  0.15423206  0.28906262    -0.33300
C852        C  0.84254814  0.14606088  0.29008502     0.02900
C853        C  0.84609154  0.10939081  0.28754192     0.08900
C854        C  0.81565547  0.09668617  0.28457032    -0.04200
H855        H  0.86081672  0.16565997  0.29366567     0.09600
H856        H  0.80869063  0.06909869  0.28335909     0.10800
Cu857      Cu  0.79304422  0.20539312  0.29484945     0.44200
Cu858      Cu  0.74622330  0.12312817  0.28474595     0.42000
Cu859      Cu  0.71032306  0.21148083  0.29032048     0.43900
N860        N  0.76951885  0.25413406  0.29679992    -0.32900
N861        N  0.73856127  0.25619998  0.29455147    -0.27100
C862        C  0.72982683  0.29058955  0.29088615    -0.03200
C863        C  0.75667703  0.31144756  0.29066094     0.09000
C864        C  0.78137414  0.28727011  0.29481620     0.02800
H865        H  0.70576885  0.29937678  0.28588221     0.10400
H866        H  0.80618909  0.29317551  0.29255835     0.09500
N867        N  0.68513274  0.16439222  0.28731658    -0.34300
N868        N  0.69756622  0.13202997  0.28552325    -0.26500
C869        C  0.67408346  0.10800717  0.28735191    -0.01700
C870        C  0.64567168  0.12636849  0.29048209     0.06900
C871        C  0.65374130  0.16186168  0.29035074     0.05000
H872        H  0.67755730  0.07947387  0.28872780     0.10100
H873        H  0.63791336  0.18434286  0.29428957     0.08900
C874        C  0.49198415  0.06962478  0.04966057     0.31800
C875        C  0.49195907  0.01440343  0.98730831     0.31800
C876        C  0.52071014  0.06649750  0.01731891    -0.04400
C877        C  0.49090564  0.03244714  0.07258494    -0.05200
C878        C  0.96502326  0.06832630  0.02458019    -0.05000
C879        C  0.52110386  0.03874441  0.98523995    -0.04400
C880        C  0.49098705  0.00368154  0.04111323    -0.05200
C881        C  0.96456724  0.04057772  0.99239498    -0.05000
C882        C  0.55496334  0.04226540  0.29446651    -0.30400
N883        N  0.57270203  0.06946961  0.31131470     0.16100
C884        C  0.54958975  0.08225329  0.01634556    -0.30400
H885        H  0.55713544  0.10330297  0.03964838     0.18000
C886        C  0.99117463  0.97234141  0.07881253    -0.29400
N887        N  0.99160011  0.98156860  0.12581826     0.14800
C888        C  0.99143159  0.01761691  0.12778566    -0.29400
C889        C  0.94261484  0.05305001  0.30381734    -0.29700
N890        N  0.92990775  0.08380617  0.32110151     0.15300
H891        H  0.93285112  0.03763369  0.27509925     0.17900
C892        C  0.93684731  0.08625555  0.02119692    -0.29700
H893        H  0.92931806  0.10778586  0.04398193     0.17900
H894        H  0.99321580  0.03344018  0.15916083     0.17900
H895        H  0.56218618  0.02414953  0.26668213     0.18000
H896        H  0.99171915  0.94509818  0.06734050     0.17900
C897        C  0.87551347  0.08799382  0.29278906    -0.14600
C898        C  0.90257570  0.10343375  0.30553721    -0.29800
H899        H  0.89349528  0.13404324  0.99271593     0.14400
H900        H  0.90294668  0.13197439  0.31074942     0.15000
C901        C  0.60395794  0.07935687  0.29604891    -0.14600
C902        C  0.61353476  0.11330124  0.30006372    -0.29800
H903        H  0.61963185  0.05929473  0.28137248     0.14400
H904        H  0.59663042  0.13330783  0.31142280     0.15000
C905        C  0.60093518  0.89379244  0.13257814    -0.14600
C906        C  0.61204241  0.86061444  0.14088946    -0.29800
H907        H  0.61561412  0.91324488  0.11460005     0.14400
H908        H  0.59627447  0.84075651  0.15552634     0.15000
C909        C  0.87421995  0.88646323  0.13303071    -0.14600
C910        C  0.90157494  0.87001356  0.14391067    -0.29800
H911        H  0.87288692  0.91532332  0.13294433     0.14400
H912        H  0.90225633  0.84124039  0.14708842     0.15000
C913        C  0.75713940  0.63337087  0.07118499    -0.14600
C914        C  0.75250589  0.60034613  0.08879307    -0.29800
H915        H  0.76083357  0.63709461  0.03312738     0.14400
H916        H  0.74954362  0.59619689  0.12689541     0.15000
C917        C  0.50148492  0.84020599  0.24035973    -0.14600
C918        C  0.49905920  0.87321965  0.25762935    -0.29800
H919        H  0.50267571  0.83616345  0.20205957     0.14400
H920        H  0.00270300  0.87396385  0.30346441     0.15000
C921        C  0.63265239  0.60333283  0.29924397    -0.14600
C922        C  0.64290673  0.56946386  0.29799988    -0.29800
H923        H  0.64906955  0.62376438  0.30975479     0.14400
H924        H  0.65014422  0.62479619  0.96796082     0.15000
C925        C  0.86579211  0.61344549  0.30480956    -0.14600
C926        C  0.85520019  0.58033725  0.29694277    -0.29800
H927        H  0.84963282  0.63343705  0.31831228     0.14400
H928        H  0.87060139  0.56069315  0.28069325     0.15000
C929        C  0.75951946  0.34957407  0.27665084    -0.14600
C930        C  0.73620535  0.36629297  0.25280567    -0.29800
H931        H  0.78238520  0.36196592  0.27928820     0.14400
H932        H  0.71369176  0.35323831  0.25116147     0.15000
C933        C  0.99672284  0.13248663  0.07327707    -0.14600
C934        C  0.99262963  0.10006939  0.09260435    -0.29800
H935        H  0.99976580  0.13519068  0.03491247     0.14400
H936        H  0.49062120  0.09952335  0.11968228     0.15000
C937        C  0.85954583  0.35309922  0.15412463    -0.14600
C938        C  0.84783735  0.38552723  0.14334571    -0.29800
H939        H  0.84374358  0.33251250  0.16659394     0.14400
H940        H  0.86311346  0.40567684  0.12814296     0.15000
C941        C  0.62522204  0.36918560  0.13238825    -0.14600
C942        C  0.63472041  0.40307751  0.13478769    -0.29800
H943        H  0.64202427  0.34800017  0.14025091     0.14400
H944        H  0.61938377  0.42458761  0.12271095     0.15000
N945        N  0.95366387  0.34299278  0.48222083    -0.25500
N946        N  0.94286391  0.31050546  0.49028443    -0.33300
C947        C  0.91184191  0.31234975  0.49864192     0.02900
C948        C  0.90218430  0.34736141  0.49530339     0.08900
C949        C  0.92930650  0.36629465  0.48493515    -0.04200
H950        H  0.89711568  0.28952328  0.50543972     0.09600
H951        H  0.93122866  0.39473677  0.47966185     0.10800
Cu952      Cu  0.96794368  0.26296485  0.48545092     0.44200
Cu953      Cu  0.00115212  0.35377170  0.46754504     0.42000
Cu954      Cu  0.54263317  0.27622373  0.42636238     0.43900
N955        N  0.99443767  0.21884384  0.46564119    -0.32900
N956        N  0.52185779  0.22714043  0.43263341    -0.27100
C957        C  0.53142887  0.19605298  0.41430119    -0.03200
C958        C  0.01035282  0.16650002  0.43849551     0.09000
C959        C  0.98612191  0.18448444  0.46138207     0.02800
H960        H  0.55205244  0.19273896  0.39208728     0.10400
H961        H  0.96289014  0.17439598  0.46903505     0.09500
N962        N  0.56394837  0.32475440  0.43412221    -0.34300
N963        N  0.54990343  0.35500821  0.44575261    -0.26500
C964        C  0.57237910  0.37921009  0.45527408    -0.03300
C965        C  0.60161195  0.36285736  0.44968561     0.06900
C966        C  0.59515905  0.32863534  0.43622528     0.05000
H967        H  0.56781887  0.40543624  0.46939735     0.10100
H968        H  0.61196846  0.30709771  0.43209377     0.08900
C969        C  0.74800493  0.40438043  0.55528880     0.31800
C970        C  0.75336742  0.45783922  0.49026815     0.31800
C971        C  0.71958150  0.41032307  0.52280924    -0.04400
C972        C  0.75269723  0.44146563  0.57626230    -0.05200
C973        C  0.77554321  0.40089134  0.52035993    -0.05000
C974        C  0.72217500  0.43758655  0.48967113    -0.04400
C975        C  0.75560891  0.46943015  0.54329769    -0.05200
C976        C  0.77861250  0.42835783  0.48715274    -0.05000
C977        C  0.69362192  0.44046151  0.46636451    -0.30400
N978        N  0.67424342  0.41500061  0.48408107     0.16100
C979        C  0.68987289  0.39665378  0.51886788    -0.30400
H980        H  0.68010917  0.37536741  0.54034696     0.18000
C981        C  0.75801716  0.49985588  0.57031491    -0.29400
N982        N  0.75598101  0.49125260  0.61767061     0.14800
C983        C  0.75248918  0.45548260  0.62129472    -0.29400
C984        C  0.80980640  0.42818085  0.47281406    -0.29700
N985        N  0.82506358  0.40052959  0.49442089     0.15300
H986        H  0.82101467  0.44810724  0.45064299     0.17900
C987        C  0.80446851  0.38449571  0.52455936    -0.29700
H988        H  0.81062175  0.36456404  0.55111767     0.17900
H989        H  0.74839732  0.44046785  0.65333376     0.17900
H990        H  0.68744694  0.45944801  0.43857738     0.18000
H991        H  0.76061956  0.52674794  0.55729260     0.17900
N992        N  0.95704063  0.62629529  0.61765789    -0.25500
N993        N  0.94655763  0.65855446  0.62809243    -0.33300
C994        C  0.91548333  0.65753063  0.63552882     0.02900
C995        C  0.90557861  0.62311781  0.62980114     0.08900
C996        C  0.93247451  0.60375348  0.61842233    -0.04200
H997        H  0.90117361  0.68026118  0.64535772     0.09600
H998        H  0.93426014  0.57542705  0.61243076     0.10800
Cu999      Cu  0.97305985  0.70395447  0.63215495     0.44200
Cu1000     Cu  0.50548610  0.62043538  0.61689576     0.42000
Cu1001     Cu  0.55253281  0.70117644  0.60291195     0.43900
N1002       N  0.00037748  0.74788150  0.61943746    -0.32900
N1003       N  0.52972760  0.75011578  0.60709572    -0.27100
C1004       C  0.54001399  0.78189288  0.59156307    -0.03200
C1005       C  0.51567099  0.80640655  0.59508265     0.09000
C1006       C  0.99098917  0.78208161  0.61616080     0.02800
H1007       H  0.56249655  0.78605351  0.57438590     0.10400
H1008       H  0.96710726  0.79120515  0.62206873     0.09500
N1009       N  0.57074184  0.64973033  0.60205421    -0.34300
N1010       N  0.55411692  0.62040220  0.60762134    -0.26500
C1011       C  0.57395844  0.59224988  0.60957221    -0.01700
C1012       C  0.60448272  0.60442598  0.60516242     0.06900
C1013       C  0.60139883  0.64104656  0.60015042     0.05000
H1014       H  0.56680179  0.56511172  0.61629893     0.10100
H1015       H  0.61996689  0.66042529  0.59768377     0.08900
C1016       C  0.75214011  0.51249749  0.32095996     0.31800
C1017       C  0.74968908  0.56875033  0.38136518     0.31800
C1018       C  0.72191981  0.53530020  0.31870099    -0.04400
C1019       C  0.75418654  0.50294224  0.37485316    -0.05200
C1020       C  0.77870845  0.53992778  0.31533305    -0.05000
C1021       C  0.72082587  0.56377597  0.34961368    -0.04400
C1022       C  0.75291306  0.53217153  0.40552558    -0.05200
C1023       C  0.77707542  0.56854682  0.34601932    -0.05000
C1024       C  0.69150484  0.57905797  0.34583641    -0.30400
N1025       N  0.68828963  0.58131876  0.63852460     0.16100
C1026       C  0.70254803  0.55073739  0.62390476    -0.30400
H1027       H  0.69478288  0.53453623  0.59454860     0.18000
C1028       C  0.75330232  0.51962922  0.45173624    -0.29400
N1029       N  0.75527694  0.48361803  0.45061441     0.14800
C1030       C  0.75585300  0.47338745  0.40405205    -0.29400
C1031       C  0.80472656  0.58690727  0.34198875    -0.29700
N1032       N  0.83155779  0.56881695  0.64870913     0.15300
H1033       H  0.81151864  0.60903569  0.36397797     0.17900
C1034       C  0.81438953  0.54144162  0.63156250    -0.29700
H1035       H  0.82230415  0.52293964  0.60466372     0.17900
H1036       H  0.75679763  0.44599080  0.39308910     0.17900
H1037       H  0.68280315  0.60111168  0.36673096     0.18000
H1038       H  0.75056978  0.53566341  0.48299867     0.17900
C1039       C  0.49746333  0.95835065  0.48820755     0.31800
C1040       C  0.50311468  0.90308028  0.55123623     0.31800
C1041       C  0.52843629  0.93691060  0.48576020    -0.04400
C1042       C  0.49592267  0.96860407  0.54169916    -0.05200
C1043       C  0.97034089  0.92625411  0.49314028    -0.05000
C1044       C  0.53110620  0.90894949  0.51798052    -0.04400
C1045       C  0.49889063  0.93989073  0.57364104    -0.05200
C1046       C  0.97368013  0.89782596  0.52484477    -0.05000
C1047       C  0.56053805  0.89421926  0.51276143    -0.30400
N1048       N  0.57601565  0.91232980  0.47793710     0.16100
C1049       C  0.55678111  0.93885067  0.46150737    -0.30400
H1050       H  0.56297745  0.95809111  0.43419532     0.18000
C1051       C  0.99840882  0.94907360  0.62715046    -0.29400
N1052       N  0.99454377  0.98499207  0.62445139     0.14800
C1053       C  0.99243336  0.99437195  0.57751524    -0.29400
C1054       C  0.94531009  0.88058842  0.52667346    -0.29700
N1055       N  0.92484970  0.89725011  0.49644255     0.15300
H1056       H  0.93942816  0.85925685  0.55117931     0.17900
C1057       C  0.93966257  0.92576674  0.47684598    -0.29700
H1058       H  0.92846140  0.94574179  0.45440994     0.17900
H1059       H  0.98911690  0.02144346  0.56550543     0.17900
H1060       H  0.57032401  0.87247437  0.53370542     0.18000
H1061       H  0.00238883  0.93363705  0.65906734     0.17900
N1062       N  0.79791847  0.83970494  0.47526907    -0.25500
N1063       N  0.80923040  0.80692656  0.48064301    -0.33300
C1064       C  0.84012080  0.80835038  0.48994554     0.02900
C1065       C  0.84915781  0.84343031  0.49008911     0.08900
C1066       C  0.82182988  0.86279594  0.48072533    -0.04200
H1067       H  0.85515064  0.78526858  0.49522847     0.09600
H1068       H  0.81943624  0.89142368  0.47823404     0.10800
Cu1069     Cu  0.78500961  0.75986399  0.47152422     0.44200
Cu1070     Cu  0.75034141  0.85152452  0.46073868     0.42000
Cu1071     Cu  0.71035474  0.77280048  0.42295683     0.43900
N1072       N  0.75868323  0.71760873  0.44741618    -0.32900
N1073       N  0.73104466  0.72336169  0.42736504    -0.27100
C1074       C  0.72072268  0.69310094  0.40830205    -0.03200
C1075       C  0.74265847  0.66673373  0.41735859     0.09000
C1076       C  0.76670059  0.68311276  0.44194219     0.02800
H1077       H  0.69977546  0.69100377  0.38666482     0.10400
H1078       H  0.78944662  0.67177400  0.45085119     0.09500
N1079       N  0.68812643  0.82093506  0.43205772    -0.34300
N1080       N  0.70173367  0.85034950  0.44674281    -0.26500
C1081       C  0.67893909  0.87471717  0.45594682    -0.01700
C1082       C  0.64991731  0.85935030  0.44678963     0.06900
C1083       C  0.65686804  0.82543455  0.43185441     0.05000
H1084       H  0.68297423  0.90027827  0.47213225     0.10100
H1085       H  0.64024896  0.80445180  0.42502133     0.08900
N1086       N  0.79629661  0.13028326  0.63902413    -0.25500
N1087       N  0.80850179  0.16257504  0.64082855    -0.33300
C1088       C  0.83978224  0.15998706  0.64502670     0.02900
C1089       C  0.84822757  0.12463676  0.64576973     0.08900
C1090       C  0.82012488  0.10623829  0.64190553    -0.04200
H1091       H  0.85534431  0.18249493  0.64781125     0.09600
H1092       H  0.81713254  0.07769054  0.64232552     0.10800
Cu1093     Cu  0.78510889  0.21084313  0.63735528     0.44200
Cu1094     Cu  0.74757322  0.12093994  0.63435923     0.42000
Cu1095     Cu  0.70594917  0.20603876  0.62322271     0.43900
N1096       N  0.75865422  0.25631018  0.62578148    -0.32900
N1097       N  0.72806293  0.25394548  0.61976690    -0.27100
C1098       C  0.71656844  0.28533820  0.60450612    -0.03200
C1099       C  0.74112393  0.30892154  0.60164069     0.09000
C1100       C  0.76764714  0.28959055  0.61477060     0.02800
H1101       H  0.69277642  0.28965475  0.59193194     0.10400
H1102       H  0.79185007  0.29788037  0.61124466     0.09500
N1103       N  0.68449675  0.15770763  0.62635220    -0.34300
N1104       N  0.69825585  0.12612544  0.63037736    -0.26500
C1105       C  0.67543247  0.10130074  0.63379179    -0.01700
C1106       C  0.64641426  0.11872274  0.63179400     0.06900
C1107       C  0.65329761  0.15415615  0.62722861     0.05000
H1108       H  0.67960443  0.07316770  0.63963061     0.10100
H1109       H  0.63672701  0.17617640  0.62640781     0.08900
C1110       C  0.49973573  0.07330041  0.38518897     0.31800
C1111       C  0.49648015  0.01912755  0.32138775     0.31800
C1112       C  0.52788707  0.06912230  0.35181659    -0.04400
C1113       C  0.49713615  0.03591622  0.40743981    -0.05200
C1114       C  0.97321732  0.07261433  0.36208178    -0.05000
C1115       C  0.52658321  0.04183165  0.31906532    -0.04400
C1116       C  0.49539184  0.00774688  0.37511379    -0.05200
C1117       C  0.97016670  0.04569090  0.32884678    -0.05000
C1118       C  0.55473738  0.03726377  0.63123440    -0.30400
N1119       N  0.57258617  0.06374111  0.64949306     0.16100
C1120       C  0.55632281  0.08557254  0.34674210    -0.30400
H1121       H  0.56482812  0.10713626  0.36837377     0.18000
C1122       C  0.99173042  0.97438243  0.41133571    -0.29400
N1123       N  0.99371553  0.98229220  0.45856447     0.14800
C1124       C  0.99761402  0.01796897  0.46226619    -0.29400
C1125       C  0.93879322  0.04027763  0.63992060    -0.29700
N1126       N  0.92307283  0.06878283  0.65789636     0.15300
H1127       H  0.92874330  0.02081334  0.61631427     0.17900
C1128       C  0.94853440  0.09576995  0.35638706    -0.29700
H1129       H  0.94412388  0.11959106  0.37684168     0.17900
H1130       H  0.00222942  0.03238873  0.49429454     0.17900
H1131       H  0.56243450  0.01867180  0.60430779     0.18000
H1132       H  0.98848634  0.94771821  0.39865210     0.17900
C1133       C  0.88078951  0.11198039  0.65323943    -0.14600
C1134       C  0.89076522  0.07826528  0.64805178    -0.29800
H1135       H  0.87433047  0.05922685  0.29037509     0.14400
H1136       H  0.87476555  0.05813555  0.63522958     0.15000
C1137       C  0.60447576  0.07234570  0.63658259    -0.14600
C1138       C  0.61428586  0.10601251  0.64052803    -0.29800
H1139       H  0.62017603  0.05179421  0.62321232     0.14400
H1140       H  0.59721452  0.12642191  0.64999169     0.15000
C1141       C  0.60757317  0.90456465  0.46188824    -0.14600
C1142       C  0.61808727  0.87076405  0.46142775    -0.29800
H1143       H  0.62232509  0.92592626  0.44861854     0.14400
H1144       H  0.60182646  0.84962359  0.47050711     0.15000
C1145       C  0.88166967  0.85533131  0.49882480    -0.14600
C1146       C  0.89229313  0.88817906  0.48885731    -0.29800
H1147       H  0.89798809  0.83517786  0.51194404     0.14400
H1148       H  0.87659882  0.90779066  0.47269565     0.15000
C1149       C  0.74433121  0.63324529  0.39138793    -0.14600
C1150       C  0.74866946  0.60134844  0.41235482    -0.29800
H1151       H  0.74019071  0.63477459  0.35316628     0.14400
H1152       H  0.75142745  0.59906143  0.45075943     0.15000
C1153       C  0.51306797  0.83904384  0.56617310    -0.14600
C1154       C  0.50635025  0.87117791  0.58435583    -0.29800
H1155       H  0.51725109  0.83649156  0.52812515     0.14400
H1156       H  0.00390826  0.86860970  0.62842329     0.15000
C1157       C  0.63375256  0.58335380  0.61283991    -0.14600
C1158       C  0.66161088  0.59935997  0.61814677    -0.29800
H1159       H  0.63195384  0.55491224  0.61935118     0.14400
H1160       H  0.62793466  0.54875099  0.28405794     0.15000
C1161       C  0.87320530  0.61143497  0.63915039    -0.14600
C1162       C  0.86299028  0.57798671  0.63428571    -0.29800
H1163       H  0.85695380  0.63179717  0.65147459     0.14400
H1164       H  0.87825852  0.55766518  0.61927771     0.15000
C1165       C  0.74098090  0.34084482  0.57177497    -0.14600
C1166       C  0.74552249  0.37337654  0.58935554    -0.29800
H1167       H  0.73730766  0.33738964  0.53374608     0.14400
H1168       H  0.74857378  0.37711197  0.62742076     0.15000
C1169       C  0.00754181  0.13392483  0.41071221    -0.14600
C1170       C  0.00337347  0.10129999  0.42955809    -0.29800
H1171       H  0.01039468  0.13686805  0.37234795     0.14400
H1172       H  0.49967601  0.10229580  0.45588178     0.15000
C1173       C  0.86923420  0.35939195  0.50145157    -0.14600
C1174       C  0.85807036  0.39183193  0.48919619    -0.29800
H1175       H  0.85302979  0.33947652  0.51469382     0.14400
H1176       H  0.87366670  0.41122199  0.47299013     0.15000
C1177       C  0.63295677  0.37404604  0.46576398    -0.14600
C1178       C  0.64281262  0.40777631  0.46787815    -0.29800
H1179       H  0.64950336  0.35280984  0.47460167     0.14400
H1180       H  0.62789492  0.42942570  0.45503585     0.15000
N1181       N  0.96072389  0.34571055  0.79307683    -0.25500
N1182       N  0.94711450  0.31417646  0.79457282    -0.33300
C1183       C  0.91593996  0.31833543  0.79776393     0.02900
C1184       C  0.90882432  0.35405004  0.79855376     0.08900
C1185       C  0.93780366  0.37101250  0.79540780    -0.04200
H1186       H  0.89956711  0.29659927  0.80144663     0.09600
H1187       H  0.94198599  0.39930992  0.79720440     0.10800
Cu1188     Cu  0.96882389  0.26503739  0.79659427     0.44200
Cu1189     Cu  0.01027600  0.35052735  0.79258858     0.42000
Cu1190     Cu  0.54751962  0.26261312  0.79179792     0.43900
N1191       N  0.99162553  0.21670059  0.79226592    -0.32900
N1192       N  0.52151124  0.21699736  0.78538018    -0.27100
C1193       C  0.53061287  0.18385324  0.77383134    -0.03200
C1194       C  0.00485788  0.16211099  0.77127024     0.09000
C1195       C  0.97995239  0.18504838  0.77978866     0.02800
H1196       H  0.55467557  0.17594751  0.76667793     0.10400
H1197       H  0.95545085  0.18039327  0.77180932     0.09500
N1198       N  0.57064427  0.31050660  0.79314276    -0.34300
N1199       N  0.55836575  0.34301144  0.79060754    -0.26500
C1200       C  0.58222902  0.36658771  0.79334924    -0.03300
C1201       C  0.61036609  0.34759718  0.79794953     0.06900
C1202       C  0.60188199  0.31245558  0.79770015     0.05000
H1203       H  0.57923016  0.39519099  0.79361934     0.10100
H1204       H  0.61738052  0.28961419  0.80151519     0.08900
C1205       C  0.75863100  0.40245751  0.88633090     0.31800
C1206       C  0.75652305  0.45809416  0.82315148     0.31800
C1207       C  0.73253912  0.40100479  0.84836362    -0.04400
C1208       C  0.75350330  0.43941028  0.90856737    -0.05200
C1209       C  0.78824128  0.40828976  0.85606133    -0.05000
C1210       C  0.73114591  0.42972878  0.81679029    -0.04400
C1211       C  0.75222426  0.46824579  0.87649967    -0.05200
C1212       C  0.78738722  0.43644166  0.82387999    -0.05000
C1213       C  0.70173987  0.42962181  0.79580722    -0.30400
N1214       N  0.68580577  0.40087034  0.81211339     0.16100
C1215       C  0.70429177  0.38353287  0.84454804    -0.30400
H1216       H  0.69671312  0.36144116  0.86647962     0.18000
C1217       C  0.74841889  0.49818889  0.90429109    -0.29400
N1218       N  0.74810269  0.48875141  0.95141672     0.14800
C1219       C  0.75135521  0.45271857  0.95410081    -0.29400
C1220       C  0.81648855  0.43745864  0.80152724    -0.29700
N1221       N  0.83458029  0.41029719  0.81908283     0.15300
H1222       H  0.82386397  0.45635603  0.77447964     0.17900
C1223       C  0.81749873  0.39267822  0.85267402    -0.29700
H1224       H  0.82606581  0.37050836  0.87395226     0.17900
H1225       H  0.75390632  0.43699695  0.98600175     0.17900
H1226       H  0.69200799  0.45005317  0.77253870     0.18000
H1227       H  0.74689037  0.52540114  0.89209916     0.17900
N1228       N  0.94865698  0.62561096  0.94571343    -0.25500
N1229       N  0.93684657  0.65801612  0.95116981    -0.33300
C1230       C  0.90586350  0.65600029  0.95910161     0.02900
C1231       C  0.89735518  0.62079174  0.95875094     0.08900
C1232       C  0.92501455  0.60199198  0.95007837    -0.04200
H1233       H  0.89075838  0.67862612  0.96640754     0.09600
H1234       H  0.92800731  0.57340244  0.94917739     0.10800
Cu1235     Cu  0.96189605  0.70460572  0.95241865     0.44200
Cu1236     Cu  0.49672832  0.61496573  0.94557114     0.42000
Cu1237     Cu  0.54324924  0.69458799  0.92879755     0.43900
N1238       N  0.99005092  0.74883584  0.95177134    -0.32900
N1239       N  0.52290843  0.74458464  0.93617518    -0.27100
C1240       C  0.53383567  0.77593761  0.92023049    -0.03200
C1241       C  0.51123349  0.80193127  0.92816511     0.09000
C1242       C  0.98123310  0.78312146  0.94758496     0.02800
H1243       H  0.55537687  0.77901257  0.90009185     0.10400
H1244       H  0.95705327  0.79204828  0.94442042     0.09500
N1245       N  0.56187573  0.64342477  0.93062963    -0.34300
N1246       N  0.54546425  0.61406158  0.93713555    -0.26500
C1247       C  0.56561157  0.58625749  0.94155330    -0.01700
C1248       C  0.59608979  0.59891444  0.93822665     0.06900
C1249       C  0.59263584  0.63523586  0.93085239     0.05000
H1250       H  0.55867638  0.55923643  0.94962499     0.10100
H1251       H  0.61107591  0.65476385  0.92801681     0.08900
C1252       C  0.75624761  0.51800343  0.65592403     0.31800
C1253       C  0.75723737  0.57239408  0.71952685     0.31800
C1254       C  0.72900683  0.54513706  0.65189816    -0.04400
C1255       C  0.75480954  0.50673386  0.70958004    -0.05200
C1256       C  0.78572610  0.54127074  0.65477014    -0.05000
C1257       C  0.72997182  0.57282198  0.68421498    -0.04400
C1258       C  0.75497557  0.53506870  0.74179090    -0.05200
C1259       C  0.78605300  0.56882507  0.68722455    -0.05000
C1260       C  0.70495245  0.59496750  0.67498230    -0.30400
N1261       N  0.67948600  0.57845366  0.97961218     0.16100
C1262       C  0.69359629  0.54836306  0.96277853    -0.30400
H1263       H  0.68462717  0.53215217  0.93425045     0.18000
C1264       C  0.75553983  0.52119014  0.78741830    -0.29400
N1265       N  0.75573422  0.48515898  0.78464603     0.14800
C1266       C  0.75601277  0.47633444  0.73757036    -0.29400
C1267       C  0.81448308  0.58538797  0.68309486    -0.29700
N1268       N  0.82449245  0.56520214  0.98236388     0.15300
H1269       H  0.82251234  0.60714340  0.70479200     0.17900
C1270       C  0.80673058  0.53841229  0.96481447    -0.29700
H1271       H  0.81411179  0.52023766  0.93718783     0.17900
H1272       H  0.75794301  0.44925765  0.72566593     0.17900
H1273       H  0.69920536  0.61940367  0.69330475     0.18000
H1274       H  0.75734516  0.53653067  0.81934730     0.17900
C1275       C  0.49538497  0.95422398  0.82196951     0.31800
C1276       C  0.50059240  0.89973189  0.88653388     0.31800
C1277       C  0.52603900  0.93235793  0.81991590    -0.04400
C1278       C  0.49397210  0.96532037  0.87532372    -0.05200
C1279       C  0.96890006  0.92618803  0.82911947    -0.05000
C1280       C  0.52854623  0.90483926  0.85292885    -0.04400
C1281       C  0.49668344  0.93705281  0.90815310    -0.05200
C1282       C  0.97173182  0.89865059  0.86212052    -0.05000
C1283       C  0.55718935  0.88864428  0.84625930    -0.30400
N1284       N  0.57220939  0.90536892  0.80976409     0.16100
C1285       C  0.55361033  0.93252824  0.79374305    -0.30400
H1286       H  0.55957605  0.95070400  0.76502996     0.18000
C1287       C  0.99618351  0.95133289  0.96194440    -0.29400
N1288       N  0.99307598  0.98723760  0.95829047     0.14800
C1289       C  0.99203503  0.99597010  0.91094701    -0.29400
C1290       C  0.94654167  0.87662870  0.85634267    -0.29700
N1291       N  0.92792816  0.89034292  0.82148561     0.15300
H1292       H  0.94180926  0.85249159  0.87637135     0.17900
C1293       C  0.94117595  0.92076093  0.80442125    -0.29700
H1294       H  0.93165875  0.93721277  0.77593069     0.17900
H1295       H  0.98938021  0.02294518  0.89818952     0.17900
H1296       H  0.56663707  0.86657909  0.86694788     0.18000
H1297       H  0.99879297  0.93606863  0.99417742     0.17900
N1298       N  0.79379900  0.85613276  0.77606780    -0.25500
N1299       N  0.81062043  0.82656182  0.77194735    -0.33300
C1300       C  0.84123021  0.83417236  0.77601686     0.02900
C1301       C  0.84418309  0.87034657  0.78349177     0.08900
C1302       C  0.81358250  0.88348707  0.78306625    -0.04200
H1303       H  0.85976326  0.81432938  0.77501549     0.09600
H1304       H  0.80619905  0.91068095  0.78917850     0.10800
Cu1305     Cu  0.79268568  0.77580422  0.76686665     0.44200
Cu1306     Cu  0.74465398  0.85660101  0.77519098     0.42000
Cu1307     Cu  0.71167119  0.76635051  0.78276944     0.43900
N1308       N  0.77169092  0.72647251  0.77040130    -0.32900
N1309       N  0.74133100  0.72270695  0.77828234    -0.27100
C1310       C  0.73374615  0.68831006  0.77285390    -0.03200
C1311       C  0.76074723  0.66950805  0.76107355     0.09000
C1312       C  0.78421556  0.69470609  0.75929107     0.02800
H1313       H  0.70988059  0.67863998  0.77128034     0.10400
H1314       H  0.80786116  0.69089042  0.74587929     0.09500
N1315       N  0.68537530  0.81280265  0.77912006    -0.34300
N1316       N  0.69659521  0.84549813  0.77633366    -0.26500
C1317       C  0.67226698  0.86877164  0.77801655    -0.01700
C1318       C  0.64467295  0.84954691  0.78210079     0.06900
C1319       C  0.65396171  0.81436150  0.78248935     0.05000
H1320       H  0.67468263  0.89737631  0.77898949     0.10100
H1321       H  0.63904035  0.79144352  0.78741598     0.08900
N1322       N  0.79191212  0.13497093  0.96949757    -0.25500
N1323       N  0.80465339  0.16692166  0.97238600    -0.33300
C1324       C  0.83601101  0.16347712  0.97545188     0.02900
C1325       C  0.84400682  0.12785902  0.97434945     0.08900
C1326       C  0.81540658  0.11031068  0.97051076    -0.04200
H1327       H  0.85196320  0.18552463  0.97939759     0.09600
H1328       H  0.81187106  0.08185334  0.97023475     0.10800
Cu1329     Cu  0.78078964  0.21543033  0.97374318     0.44200
Cu1330     Cu  0.74263785  0.12763015  0.96720233     0.42000
Cu1331     Cu  0.69940801  0.21398038  0.96805666     0.43900
N1332       N  0.75441988  0.26219784  0.97040361    -0.32900
N1333       N  0.72345054  0.26175890  0.96851748    -0.27100
C1334       C  0.71259667  0.29525109  0.96202845    -0.03200
C1335       C  0.73806198  0.31795074  0.95917732     0.09000
C1336       C  0.76425617  0.29591113  0.96483443     0.02800
H1337       H  0.68816369  0.30222292  0.95606916     0.10400
H1338       H  0.78870596  0.30338827  0.96244271     0.09500
N1339       N  0.67861800  0.16423761  0.96718571    -0.34300
N1340       N  0.69303287  0.13282788  0.96706394    -0.26500
C1341       C  0.67079514  0.10717212  0.96904861    -0.01700
C1342       C  0.64132217  0.12358269  0.97045285     0.06900
C1343       C  0.64746557  0.15949109  0.96925323     0.05000
H1344       H  0.67573511  0.07892775  0.97128915     0.10100
H1345       H  0.63036499  0.18091797  0.97133138     0.08900
C1346       C  0.49833965  0.06863621  0.71968755     0.31800
C1347       C  0.49585534  0.01513781  0.65528271     0.31800
C1348       C  0.52668591  0.06503125  0.68676825    -0.04400
C1349       C  0.49586270  0.03115471  0.74111541    -0.05200
C1350       C  0.97051425  0.06740947  0.69090083    -0.05000
C1351       C  0.52575068  0.03790609  0.65382141    -0.04400
C1352       C  0.49437765  0.00322826  0.70859331    -0.05200
C1353       C  0.96870002  0.03934995  0.65919509    -0.05000
C1354       C  0.55101965  0.03837355  0.96502638    -0.30400
N1355       N  0.56795416  0.06560855  0.98370154     0.16100
C1356       C  0.55559944  0.08049955  0.68376063    -0.30400
H1357       H  0.56411349  0.10148559  0.70639674     0.18000
C1358       C  0.99272461  0.97082679  0.74438942    -0.29400
N1359       N  0.99369218  0.98014862  0.79130301     0.14800
C1360       C  0.99601830  0.01605072  0.79339224    -0.29400
C1361       C  0.93528178  0.04201932  0.97040766    -0.29700
N1362       N  0.91878503  0.07042759  0.98766961     0.15300
H1363       H  0.92623023  0.02306780  0.94517749     0.17900
C1364       C  0.94218115  0.08514272  0.68961189    -0.29700
H1365       H  0.93525313  0.10670094  0.71277725     0.17900
H1366       H  0.99895395  0.03153592  0.82495441     0.17900
H1367       H  0.55998106  0.01927326  0.93966484     0.18000
H1368       H  0.99118126  0.94369084  0.73258507     0.17900
C1369       C  0.87655663  0.11427344  0.98186891    -0.14600
C1370       C  0.88668014  0.08048068  0.97591297    -0.29800
H1371       H  0.89773455  0.13213784  0.66275665     0.14400
H1372       H  0.87083925  0.06067852  0.96181852     0.15000
C1373       C  0.60007782  0.07530135  0.97262211    -0.14600
C1374       C  0.60938389  0.10922390  0.97830063    -0.29800
H1375       H  0.61632111  0.05546647  0.95882419     0.14400
H1376       H  0.59186140  0.12892469  0.98841234     0.15000
C1377       C  0.60287068  0.89588132  0.79190581    -0.14600
C1378       C  0.61252518  0.86177517  0.79317905    -0.29800
H1379       H  0.61807218  0.91648156  0.77768307     0.14400
H1380       H  0.59605460  0.84140784  0.80436313     0.15000
C1381       C  0.87338243  0.89010280  0.79419256    -0.14600
C1382       C  0.90028887  0.87270779  0.80481002    -0.29800
H1383       H  0.87232058  0.91890727  0.79650081     0.14400
H1384       H  0.90057822  0.84386275  0.80609262     0.15000
C1385       C  0.76130536  0.63676317  0.73327326    -0.14600
C1386       C  0.75760409  0.60412902  0.75227216    -0.29800
H1387       H  0.76507762  0.63974571  0.69510785     0.14400
H1388       H  0.75463047  0.60063099  0.79048859     0.15000
C1389       C  0.50898591  0.83533036  0.90062153    -0.14600
C1390       C  0.50322977  0.86756821  0.91952691    -0.29800
H1391       H  0.51286006  0.83322217  0.86243622     0.14400
H1392       H  0.99980227  0.87172552  0.96749734     0.15000
C1393       C  0.62573269  0.57898596  0.94806498    -0.14600
C1394       C  0.65144097  0.59621448  0.96300999    -0.29800
H1395       H  0.62570950  0.55012190  0.94703474     0.14400
H1396       H  0.66301848  0.62805825  0.61483734     0.15000
C1397       C  0.86567316  0.60824439  0.97130817    -0.14600
C1398       C  0.85570874  0.57461756  0.96700911    -0.29800
H1399       H  0.84942088  0.62836601  0.98432184     0.14400
H1400       H  0.87076269  0.55459422  0.95085296     0.15000
C1401       C  0.73694842  0.35563315  0.94263322    -0.14600
C1402       C  0.76129104  0.37000643  0.91893044    -0.29800
H1403       H  0.71456371  0.36969563  0.94364944     0.14400
H1404       H  0.78313117  0.35504175  0.91785045     0.15000
C1405       C  0.00322077  0.13082433  0.74077755    -0.14600
C1406       C  0.00033216  0.09777863  0.75848374    -0.29800
H1407       H  0.00436512  0.13514386  0.70244306     0.14400
H1408       H  0.49883933  0.09513583  0.79176078     0.15000
C1409       C  0.87673569  0.36748510  0.80875100    -0.14600
C1410       C  0.86644879  0.40135560  0.80508230    -0.29800
H1411       H  0.86005619  0.34723323  0.81948740     0.14400
H1412       H  0.88173705  0.42185719  0.79081833     0.15000
C1413       C  0.64294521  0.35924030  0.80647448    -0.14600
C1414       C  0.65353767  0.39256485  0.80098177    -0.29800
H1415       H  0.65944792  0.33844142  0.81706362     0.14400
H1416       H  0.63802373  0.41331828  0.78713907     0.15000
loop_ 
_geom_bond_atom_site_label_1 
_geom_bond_atom_site_label_2 
_geom_bond_distance 
_geom_bond_site_symmetry_2 
_ccdc_geom_bond_type 
N1            N2   1.325       .  A
N1            C5   1.354       .  A
N1           Cu9   2.101       .  S
N2            C3   1.340       .  A
N2           Cu8   2.071       .  S
C3            C4   1.377       .  A
C3            H6   1.082       .  S
C4            C5   1.391       .  A
C4          C229   1.478       .  S
C5            H7   1.082       .  S
Cu8          N11   2.069       .  S
Cu9         N727   2.100       .  S
Cu10         N12   2.054       .  S
Cu10         N18   2.054       .  S
N11         N720   1.318       .  A
N11          C15   1.348       .  A
N12         N719   1.317   1_455  A
N12          C13   1.340       .  A
C13         C722   1.380       .  A
C13          H16   1.082       .  S
C14          C15   1.384       .  A
C14         C721   1.381       .  A
C14         C225   1.464       .  S
C15          H17   1.082       .  S
N18          N19   1.323       .  A
N18          C22   1.337       .  A
N19          C20   1.355       .  A
N19        Cu717   2.108   1_455  S
C20          C21   1.393       .  A
C20          H23   1.082       .  S
C21          C22   1.374       .  A
C21         C233   1.475       .  S
C22          H24   1.082       .  S
C25          C27   1.535       .  S
C25          C29   1.544       .  S
C25          C28   1.546       .  S
C25         C222   1.529       .  S
C26          C30   1.534       .  S
C26          C32   1.539       .  S
C26          C31   1.554       .  S
C26          N85   1.481       .  S
C27          C35   1.375       .  A
C27          C30   1.384       .  A
C28          C39   1.383       .  A
C28          C31   1.404       .  A
C29          C43   1.380       .  A
C29          C32   1.398       .  A
C30          C33   1.385       .  A
C31          C37   1.379       .  A
C32          C40   1.385       .  A
C33          N34   1.359       .  A
C33          H46   1.082       .  S
N34          C35   1.358       .  A
N34         C234   1.444       .  S
C35          H36   1.081       .  S
C37          N38   1.360       .  A
C37          H47   1.072       .  S
N38          C39   1.364       .  A
N38         C308   1.481       .  S
C39          H45   1.073       .  S
C40          N41   1.357       .  A
C40          H42   1.083       .  S
N41          C43   1.358       .  A
N41         C230   1.448       .  S
C43          H44   1.078       .  S
N48          N49   1.324       .  A
N48          C52   1.354       .  A
N48        Cu764   2.110       .  S
N49          C50   1.337       .  A
N49         Cu55   2.051       .  S
C50          C51   1.373       .  A
C50          H53   1.082       .  S
C51          C52   1.392       .  A
C51         C217   1.473       .  S
C52          H54   1.082       .  S
Cu55         N58   2.050       .  S
Cu56         N66   2.099   1_655  S
Cu56        N756   2.099       .  S
Cu57         N59   2.079       .  S
Cu57         N65   2.079       .  S
N58         N767   1.315       .  A
N58          C62   1.342       .  A
N59         N766   1.319   1_455  A
N59          C60   1.345       .  A
C60          C61   1.386       .  A
C60          H63   1.082       .  S
C61         C770   1.385   1_455  A
C61         C209   1.469       .  S
C62         C769   1.382       .  A
C62          H64   1.082       .  S
N65          N66   1.323       .  A
N65          C69   1.343       .  A
N66          C67   1.351       .  A
C67          C68   1.388       .  A
C67          H70   1.082       .  S
C68          C69   1.388       .  A
C68         C213   1.490       .  S
C69          H71   1.081       .  S
C72          C74   1.546       .  S
C72          C76   1.544       .  S
C72          C75   1.561   1_556  S
C72         N510   1.481       .  S
C73          C77   1.526       .  S
C73          C79   1.523       .  S
C73          C78   1.536       .  S
C73         C206   1.518       .  S
C74          C77   1.389   1_556  A
C74         C554   1.389       .  A
C75          C86   1.384       .  A
C75          C78   1.402       .  A
C76          C79   1.385   1_556  A
C76         C562   1.387       .  A
C77          C80   1.368       .  A
C78          C84   1.375       .  A
C79          C87   1.367       .  A
C80         N553   1.352   1_554  A
C80          H93   1.083       .  S
N81          C82   1.364       .  A
N81         C316   1.352       .  A
N81         C214   1.438       .  S
C82         C310   1.390       .  A
C82          H83   1.082       .  S
C84          N85   1.361       .  A
C84          H94   1.065       .  S
N85          C86   1.364       .  A
C86          H92   1.077       .  S
C87         N560   1.356   1_554  A
C87          H89   1.082       .  S
N88          C90   1.362       .  A
N88         C323   1.359       .  A
N88         C218   1.443       .  S
C90         C312   1.385       .  A
C90          H91   1.082       .  S
C95          C97   1.544   1_655  S
C95          C98   1.566       .  S
C95         C807   1.543       .  S
C95         N887   1.480       .  S
C96         C100   1.524       .  S
C96         C101   1.537   1_455  S
C96         C810   1.528   1_455  S
C96         C210   1.519       .  S
C97         C105   1.388       .  A
C97         C100   1.385       .  A
C98         C101   1.404       .  A
C98         C817   1.389       .  A
C99         C113   1.389       .  A
C99         C102   1.386       .  A
C99         C803   1.545       .  S
C100        C103   1.367       .  A
C101        C815   1.375       .  A
C102        C110   1.369       .  A
C102        C804   1.525       .  S
C103        N104   1.356       .  A
C103        H116   1.082       .  S
N104        C105   1.363       .  A
N104        C197   1.443       .  S
C105        H106   1.082       .  S
C107        N108   1.357       .  A
C107        C809   1.371       .  A
C107        H117   1.069       .  S
N108        C109   1.365   1_565  A
N108       C1111   1.480   1_565  S
C109        C806   1.389   1_545  A
C109        H115   1.075       .  S
C110        N111   1.352       .  A
C110        H112   1.083       .  S
N111        C113   1.363       .  A
N111        C202   1.436       .  S
C113        H114   1.082       .  S
N118        N119   1.323       .  A
N118        C122   1.349       .  A
N118       Cu126   2.088       .  S
N119        C120   1.342       .  A
N119       Cu125   2.077       .  S
C120        C121   1.386       .  A
C120        H123   1.081       .  S
C121        C122   1.386       .  A
C121        C201   1.485       .  S
C122        H124   1.082       .  S
Cu125       N128   2.076       .  S
Cu126       N136   2.087       .  S
Cu127       N129   2.071       .  S
Cu127       N135   2.072       .  S
N128        N129   1.319       .  A
N128        C132   1.344       .  A
N129        C130   1.347       .  A
C130        C131   1.385       .  A
C130        H133   1.082       .  S
C131        C132   1.385       .  A
C131        C205   1.468       .  S
C132        H134   1.082       .  S
N135        N136   1.324       .  A
N135        C139   1.341       .  A
N136        C137   1.351       .  A
C137        C138   1.387       .  A
C137        H140   1.082       .  S
C138        C139   1.379       .  A
C138        C198   1.474       .  S
C139        H141   1.082       .  S
N142        N143   1.324       .  A
N142        C146   1.351       .  A
N142       Cu150   2.091       .  S
N143        C144   1.343       .  A
N143       Cu149   2.088       .  S
C144        C145   1.389       .  A
C144        H147   1.080       .  S
C145        C146   1.388       .  A
C145        C189   1.491       .  S
C146        H148   1.082       .  S
Cu149       N152   2.087       .  S
Cu150       N160   2.091       .  S
Cu151       N153   2.087       .  S
Cu151       N159   2.087       .  S
N152        N153   1.320       .  A
N152        C156   1.349       .  A
N153        C154   1.347       .  A
C154        C155   1.392       .  A
C154        H157   1.081       .  S
C155        C156   1.388       .  A
C155        C221   1.493       .  S
C156        H158   1.082       .  S
N159        N160   1.324       .  A
N159        C163   1.343       .  A
N160        C161   1.352       .  A
C161        C162   1.388       .  A
C161        H164   1.082       .  S
C162        C163   1.381       .  A
C162        C194   1.479       .  S
C163        H165   1.082       .  S
C166        C168   1.527   1_655  S
C166        C169   1.531       .  S
C166        C878   1.527       .  S
C166        C934   1.510       .  S
C167        C171   1.547   1_655  S
C167        C172   1.565   1_556  S
C167        C881   1.549       .  S
C167       N1288   1.478   1_545  S
C168        C176   1.370       .  A
C168        C171   1.382   1_554  A
C169        C172   1.400       .  A
C169        C888   1.373       .  A
C170        C184   1.372       .  A
C170        C173   1.387   1_554  A
C170        C874   1.526       .  S
C171        C646   1.392       .  A
C172        C886   1.387   1_545  A
C173        C653   1.390       .  A
C173        C875   1.550       .  S
C174        N175   1.364       .  A
C174        C407   1.389       .  A
C174        H187   1.082       .  S
N175        C412   1.356       .  A
N175        C193   1.445       .  S
C176        N647   1.358   1_554  A
C176        H177   1.082       .  S
C178        N179   1.364       .  A
C178        C880   1.383   1_565  A
C178        H188   1.076       .  S
N179        C180   1.358   1_565  A
N179        C803   1.477       .  S
C180        C877   1.372       .  A
C180        H186   1.069       .  S
C181        N182   1.364       .  A
C181        C409   1.391       .  A
C181        H183   1.082       .  S
N182        C420   1.352       .  A
N182        C190   1.438       .  S
C184        N654   1.358   1_554  A
C184        H185   1.082       .  S
C189        C190   1.345       .  D
C189        H427   1.086       .  S
C190        H192   1.084       .  S
H191        C661   1.086       .  S
C193        C194   1.349       .  D
C193        H195   1.086       .  S
C194        H196   1.086       .  S
C197        C198   1.346       .  D
C197        H199   1.086       .  S
C198        H200   1.086       .  S
C201        C202   1.343       .  D
C201        H203   1.086       .  S
C202        H204   1.085       .  S
C205        C206   1.348       .  D
C205        H207   1.087       .  S
C206        H208   1.086       .  S
C209        C210   1.348       .  D
C209        H211   1.087       .  S
C210        H920   1.086       .  S
H212        C918   1.086       .  S
C213        C214   1.345       .  D
C213        H215   1.086       .  S
C214        H452   1.084       .  S
H216        C686   1.085       .  S
C217        C218   1.343       .  D
C217        H219   1.086       .  S
C218        H220   1.086       .  S
C221        C222   1.346       .  D
C221        H223   1.084       .  S
C222        H224   1.081       .  S
C225        C226   1.346       .  D
C225        H227   1.087       .  S
C226        C874   1.515       .  S
C226        H936   1.086       .  S
H228        C934   1.086       .  S
C229        C230   1.346       .  D
C229        H231   1.084       .  S
C230        H232   1.086       .  S
C233        C234   1.343       .  D
C233        H235   1.086       .  S
C234        H236   1.086       .  S
N237        N238   1.326       .  A
N237        C241   1.354       .  A
N237       Cu245   2.104       .  S
N238        C239   1.340       .  A
N238       Cu244   2.074       .  S
C239        C240   1.376       .  A
C239        H242   1.082       .  S
C240        C241   1.391       .  A
C240        C465   1.478       .  S
C241        H243   1.082       .  S
Cu244       N247   2.072       .  S
Cu245       N963   2.103       .  S
Cu246       N248   2.051       .  S
Cu246       N254   2.050       .  S
N247        N956   1.318       .  A
N247        C251   1.348       .  A
N248        N955   1.318   1_455  A
N248        C249   1.339       .  A
C249        C958   1.379       .  A
C249        H252   1.082       .  S
C250        C957   1.381       .  A
C250        C251   1.386       .  A
C250        C461   1.466       .  S
C251        H253   1.082       .  S
N254        N255   1.323       .  A
N254        C258   1.338       .  A
N255        C256   1.353       .  A
N255       Cu953   2.101       .  S
C256        C257   1.391       .  A
C256        H259   1.082       .  S
C257        C258   1.374       .  A
C257        C469   1.473       .  S
C258        H260   1.082       .  S
C261        C263   1.529       .  S
C261        C265   1.533       .  S
C261        C264   1.535       .  S
C261        C458   1.507       .  S
C262        C266   1.534       .  S
C262        C268   1.536       .  S
C262        C267   1.558       .  S
C262        N321   1.470       .  S
C263        C271   1.374       .  A
C263        C266   1.381       .  A
C264        C275   1.375       .  A
C264        C267   1.400       .  A
C265        C279   1.377       .  A
C265        C268   1.393       .  A
C266        C269   1.382       .  A
C267        C273   1.383       .  A
C268        C276   1.384       .  A
C269        N270   1.358       .  A
C269        H282   1.082       .  S
N270        C271   1.359       .  A
N270        C470   1.440       .  S
C271        H272   1.082       .  S
C273        N274   1.365       .  A
C273        H283   1.077       .  S
N274        C275   1.359       .  A
N274        C544   1.479       .  S
C275        H281   1.070       .  S
C276        N277   1.356       .  A
C276        H278   1.083       .  S
N277        C279   1.358       .  A
N277        C466   1.445       .  S
C279        H280   1.082       .  S
N284        N285   1.323       .  A
N284        C288   1.350       .  A
N284      Cu1000   2.084       .  S
N285        C286   1.341       .  A
N285       Cu291   2.071       .  S
C286        C287   1.379       .  A
C286        H289   1.082       .  S
C287        C288   1.387       .  A
C287        C453   1.475       .  S
C288        H290   1.082       .  S
Cu291       N294   2.069       .  S
Cu292       N992   2.094   1_455  S
Cu292       N302   2.095       .  S
Cu293       N295   2.074       .  S
Cu293       N301   2.075       .  S
N294       N1003   1.320       .  A
N294        C298   1.346       .  A
N295       N1002   1.319       .  A
N295        C296   1.342       .  A
C296        C297   1.383       .  A
C296        H299   1.082       .  S
C297       C1006   1.382   1_455  A
C297        C445   1.462       .  S
C298       C1005   1.383       .  A
C298        H300   1.082       .  S
N301        N302   1.323       .  A
N301        C305   1.343       .  A
N302        C303   1.351       .  A
C303        C304   1.389       .  A
C303        H306   1.082       .  S
C304        C305   1.387       .  A
C304        C449   1.489       .  S
C305        H307   1.081       .  S
C308        C310   1.547       .  S
C308        C312   1.545       .  S
C308        C311   1.554       .  S
C309        C313   1.527       .  S
C309        C315   1.524       .  S
C309        C314   1.528       .  S
C309        C442   1.513       .  S
C310        C313   1.389       .  A
C311        C322   1.378       .  A
C311        C314   1.402       .  A
C312        C315   1.388       .  A
C313        C316   1.369       .  A
C314        C320   1.371       .  A
C315        C323   1.368       .  A
C316        H329   1.083       .  S
N317        C552   1.353       .  A
N317        C318   1.363       .  A
N317        C450   1.437       .  S
C318        C546   1.389       .  A
C318        H319   1.082       .  S
C320        N321   1.354       .  A
C320        H330   1.071       .  S
N321        C322   1.365       .  A
C322        H328   1.077       .  S
C323        H325   1.082       .  S
N324        C559   1.358       .  A
N324        C326   1.362       .  A
N324        C454   1.443       .  S
C326        C548   1.386       .  A
C326        H327   1.082       .  S
C331        C333   1.536   1_655  S
C331       C1043   1.538       .  S
C331        C334   1.553       .  S
C331       N1123   1.474       .  S
C332        C336   1.531       .  S
C332       C1046   1.533   1_455  S
C332        C337   1.539   1_455  S
C332        C446   1.511       .  S
C333        C341   1.385       .  A
C333        C336   1.382       .  A
C334       C1053   1.376       .  A
C334        C337   1.401       .  A
C335        C349   1.388       .  A
C335        C338   1.397       .  A
C335       C1039   1.545       .  S
C336        C339   1.373       .  A
C337       C1051   1.380       .  A
C338        C346   1.377       .  A
C338       C1040   1.534       .  S
C339        N340   1.359       .  A
C339        H352   1.082       .  S
N340        C341   1.360       .  A
N340        C433   1.443       .  S
C341        H342   1.082       .  S
C343        N344   1.357       .  A
C343       C1045   1.374       .  A
C343        H353   1.073       .  S
N344        C345   1.364       .  A
N344       C1347   1.473   1_565  S
C345       C1042   1.379       .  A
C345        H351   1.077   1_565  S
C346        N347   1.359       .  A
C346        H348   1.082       .  S
N347        C349   1.360       .  A
N347        C438   1.451       .  S
C349        H350   1.082       .  S
N354        N355   1.326       .  A
N354        C358   1.357       .  A
N354       Cu362   2.117       .  S
N355        C356   1.340       .  A
N355       Cu361   2.075       .  S
C356        C357   1.376       .  A
C356        H359   1.082       .  S
C357        C358   1.393       .  A
C357        C437   1.483       .  S
C358        H360   1.082       .  S
Cu361       N364   2.073       .  S
Cu362       N372   2.116       .  S
Cu363       N365   2.053       .  S
Cu363       N371   2.053       .  S
N364        N365   1.318       .  A
N364        C368   1.348       .  A
N365        C366   1.341       .  A
C366        C367   1.379       .  A
C366        H369   1.082       .  S
C367        C368   1.386       .  A
C367        C441   1.465       .  S
C368        H370   1.082       .  S
N371        N372   1.323       .  A
N371        C375   1.338       .  A
N372        C373   1.355       .  A
C373        C374   1.394       .  A
C373        H376   1.082       .  S
C374        C375   1.374       .  A
C374        C434   1.477       .  S
C375        H377   1.082       .  S
N378        N379   1.326       .  A
N378        C382   1.354       .  A
N378       Cu386   2.109       .  S
N379        C380   1.338       .  A
N379       Cu385   2.065       .  S
C380        C381   1.374       .  A
C380        H383   1.082       .  S
C381        C382   1.391       .  A
C381        C425   1.476       .  S
C382        H384   1.082       .  S
Cu385       N388   2.062       .  S
Cu386       N396   2.108       .  S
Cu387       N389   2.048       .  S
Cu387       N395   2.048       .  S
N388        N389   1.317       .  A
N388        C392   1.346       .  A
N389        C390   1.339       .  A
C390        C391   1.379       .  A
C390        H393   1.082       .  S
C391        C392   1.385       .  A
C391        C457   1.459       .  S
C392        H394   1.082       .  S
N395        N396   1.323       .  A
N395        C399   1.337       .  A
N396        C397   1.355       .  A
C397        C398   1.393       .  A
C397        H400   1.082       .  S
C398        C399   1.373       .  A
C398        C430   1.473       .  S
C399        H401   1.082       .  S
C402        C404   1.525       .  S
C402       C1114   1.525   1_455  S
C402        C405   1.530   1_455  S
C402       C1170   1.515       .  S
C403        C407   1.547   1_655  S
C403       C1117   1.547       .  S
C403        C408   1.559       .  S
C403        N816   1.482   1_545  S
C404        C412   1.369       .  A
C404        C407   1.387       .  A
C405       C1124   1.373       .  A
C405        C408   1.401       .  A
C406        C420   1.368       .  A
C406        C409   1.388       .  A
C406       C1110   1.526       .  S
C408       C1122   1.381   1_545  A
C409       C1111   1.546       .  S
C410        N411   1.360       .  A
C410        C643   1.384       .  A
C410        H423   1.082       .  S
N411        C648   1.359       .  A
N411        C429   1.442       .  S
C412        H413   1.082       .  S
C414        N415   1.362       .  A
C414       C1116   1.384   1_565  A
C414        H424   1.075       .  S
N415        C416   1.360   1_565  A
N415       C1039   1.480       .  S
C416       C1113   1.379       .  A
C416        H422   1.073       .  S
C417        N418   1.360       .  A
C417        C645   1.384       .  A
C417        H419   1.082       .  S
N418        C656   1.360       .  A
N418        C426   1.445       .  S
C420        H421   1.083       .  S
C425        C426   1.344       .  D
C425        H663   1.085       .  S
C426        H428   1.086       .  S
C429        C430   1.342       .  D
C429        H431   1.086       .  S
C430        H432   1.086       .  S
C433        C434   1.343       .  D
C433        H435   1.086       .  S
C434        H436   1.087       .  S
C437        C438   1.348       .  D
C437        H439   1.084       .  S
C438        H440   1.086       .  S
C441        C442   1.341       .  D
C441        H443   1.087       .  S
C442        H444   1.086       .  S
C445        C446   1.344       .  D
C445        H447   1.087       .  S
C446       H1156   1.086       .  S
H448       C1154   1.086       .  S
C449        C450   1.345       .  D
C449        H451   1.086       .  S
C450        H688   1.084       .  S
C453        C454   1.346       .  D
C453        H455   1.085       .  S
C454        H456   1.086       .  S
C457        C458   1.341       .  D
C457        H459   1.087       .  S
C458        H460   1.086       .  S
C461        C462   1.347       .  D
C461        H463   1.087       .  S
C462       C1110   1.516       .  S
C462       H1172   1.086       .  S
H464       C1170   1.086       .  S
C465        C466   1.344       .  D
C465        H467   1.085       .  S
C466        H468   1.086       .  S
C469        C470   1.341       .  D
C469        H471   1.087       .  S
C470        H472   1.086       .  S
N473        N474   1.324       .  A
N473        C477   1.357       .  A
N473       Cu481   2.117       .  S
N474        C475   1.336       .  A
N474       Cu480   2.050       .  S
C475        C476   1.373       .  A
C475        H478   1.082       .  S
C476        C477   1.395       .  A
C476        C701   1.477       .  S
C477        H479   1.082       .  S
Cu480       N483   2.050       .  S
Cu481      N1199   2.118       .  S
Cu482       N484   2.059       .  S
Cu482       N490   2.060       .  S
N483       N1192   1.316       .  A
N483        C487   1.342       .  A
N484       N1191   1.316   1_455  A
N484        C485   1.344       .  A
C485       C1194   1.384       .  A
C485        H488   1.082       .  S
C486       C1193   1.384       .  A
C486        C487   1.381       .  A
C486        C697   1.459       .  S
C487        H489   1.082       .  S
N490        N491   1.326       .  A
N490        C494   1.338       .  A
N491        C492   1.355       .  A
N491      Cu1189   2.117       .  S
C492        C493   1.393       .  A
C492        H495   1.082       .  S
C493        C494   1.373       .  A
C493        C705   1.476       .  S
C494        H496   1.082       .  S
C497        C499   1.540       .  S
C497        C501   1.534       .  S
C497        C500   1.540       .  S
C497        C694   1.521       .  S
C498        C502   1.535       .  S
C498        C504   1.536       .  S
C498        C503   1.558       .  S
C498        N557   1.477       .  S
C499        C507   1.378       .  A
C499        C502   1.392       .  A
C500        C511   1.377       .  A
C500        C503   1.402       .  A
C501        C515   1.375       .  A
C501        C504   1.384       .  A
C502        C505   1.382       .  A
C503        C509   1.384       .  A
C504        C512   1.385       .  A
C505        N506   1.356       .  A
C505        H518   1.082       .  S
N506        C507   1.360       .  A
N506        C706   1.445       .  S
C507        H508   1.080       .  S
C509        N510   1.364       .  A
C509        H519   1.076       .  S
N510        C511   1.361       .  A
C511        H517   1.073       .  S
C512        N513   1.360       .  A
C512        H514   1.082       .  S
N513        C515   1.360       .  A
N513        C702   1.446       .  S
C515        H516   1.081       .  S
N520        N521   1.325       .  A
N520        C524   1.350       .  A
N520      Cu1236   2.086       .  S
N521        C522   1.341       .  A
N521       Cu527   2.077       .  S
C522        C523   1.379       .  A
C522        H525   1.082       .  S
C523        C524   1.386       .  A
C523        C689   1.474       .  S
C524        H526   1.082       .  S
Cu527       N530   2.075       .  S
Cu528      N1228   2.098       .  S
Cu528       N538   2.099   1_655  S
Cu529       N531   2.064       .  S
Cu529       N537   2.065       .  S
N530       N1239   1.319       .  A
N530        C534   1.348       .  A
N531       N1238   1.318   1_455  A
N531        C532   1.342       .  A
C532        C533   1.383       .  A
C532        H535   1.082       .  S
C533       C1242   1.383   1_455  A
C533        C681   1.459       .  S
C534       C1241   1.386       .  A
C534        H536   1.082       .  S
N537        N538   1.323       .  A
N537        C541   1.341       .  A
N538        C539   1.351       .  A
C539        C540   1.389       .  A
C539        H542   1.082       .  S
C540        C541   1.385       .  A
C540        C685   1.487       .  S
C541        H543   1.081       .  S
C544        C546   1.544       .  S
C544        C548   1.541       .  S
C544        C547   1.561       .  S
C545        C549   1.525       .  S
C545        C551   1.528       .  S
C545        C550   1.533       .  S
C545        C678   1.512       .  S
C546        C549   1.387       .  A
C547        C558   1.383       .  A
C547        C550   1.402       .  A
C548        C551   1.386       .  A
C549        C552   1.370       .  A
C550        C556   1.376       .  A
C551        C559   1.369       .  A
C552        H565   1.083       .  S
N553        C554   1.364       .  A
N553        C686   1.437       .  S
C554        H555   1.082       .  S
C556        N557   1.357       .  A
C556        H566   1.072       .  S
N557        C558   1.365       .  A
C558        H564   1.076       .  S
C559        H561   1.082       .  S
N560        C562   1.363       .  A
N560        C690   1.442       .  S
C562        H563   1.082       .  S
C567        C569   1.538   1_655  S
C567       C1279   1.540       .  S
C567        C570   1.561       .  S
C567       N1359   1.473       .  S
C568        C572   1.526   1_655  S
C568       C1282   1.528       .  S
C568        C573   1.534       .  S
C568        C682   1.509   1_655  S
C569        C577   1.385       .  A
C569        C572   1.382       .  A
C570       C1289   1.384       .  A
C570        C573   1.402       .  A
C571        C585   1.385       .  A
C571        C574   1.388       .  A
C571       C1275   1.539       .  S
C572        C575   1.369       .  A
C573       C1287   1.374       .  A
C574        C582   1.369       .  A
C574       C1276   1.529       .  S
C575        N576   1.358       .  A
C575        H588   1.082       .  S
N576        C577   1.361       .  A
N576        C669   1.441       .  S
C577        H578   1.082       .  S
C579        N580   1.361       .  A
C579       C1281   1.379       .  A
C579        H589   1.072       .  S
N580        C581   1.362       .  A
N580        C875   1.480   1_565  S
C581       C1278   1.382       .  A
C581        H587   1.076   1_565  S
C582        N583   1.354       .  A
C582        H584   1.083       .  S
N583        C585   1.361       .  A
N583        C674   1.435       .  S
C585        H586   1.082       .  S
N590        N591   1.322       .  A
N590        C594   1.351       .  A
N590       Cu598   2.091       .  S
N591        C592   1.339       .  A
N591       Cu597   2.063       .  S
C592        C593   1.385       .  A
C592        H595   1.081       .  S
C593        C594   1.389       .  A
C593        C673   1.486       .  S
C594        H596   1.082       .  S
Cu597       N600   2.063       .  S
Cu598       N608   2.092       .  S
Cu599       N601   2.066       .  S
Cu599       N607   2.069       .  S
N600        N601   1.318       .  A
N600        C604   1.342       .  A
N601        C602   1.346       .  A
C602        C603   1.385       .  A
C602        H605   1.082       .  S
C603        C604   1.382       .  A
C603        C677   1.463       .  S
C604        H606   1.082       .  S
N607        N608   1.325       .  A
N607        C611   1.339       .  A
N608        C609   1.351       .  A
C609        C610   1.387       .  A
C609        H612   1.082       .  S
C610        C611   1.376       .  A
C610        C670   1.472       .  S
C611        H613   1.082       .  S
N614        N615   1.325       .  A
N614        C618   1.356       .  A
N614       Cu622   2.114       .  S
N615        C616   1.341       .  A
N615       Cu621   2.072       .  S
C616        C617   1.378       .  A
C616        H619   1.082       .  S
C617        C618   1.393       .  A
C617        C661   1.483       .  S
C618        H620   1.082       .  S
Cu621       N624   2.071       .  S
Cu622       N632   2.115       .  S
Cu623       N625   2.078       .  S
Cu623       N631   2.080       .  S
N624        N625   1.318       .  A
N624        C628   1.344       .  A
N625        C626   1.349       .  A
C626        C627   1.388       .  A
C626        H629   1.082       .  S
C627        C628   1.390       .  A
C627        C693   1.488       .  S
C628        H630   1.081       .  S
N631        N632   1.326       .  A
N631        C635   1.340       .  A
N632        C633   1.357       .  A
C633        C634   1.392       .  A
C633        H636   1.082       .  S
C634        C635   1.378       .  A
C634        C666   1.482       .  S
C635        H637   1.082       .  S
C638        C640   1.527   1_655  S
C638       C1350   1.530       .  S
C638        C641   1.533       .  S
C638       C1406   1.510   1_655  S
C639        C643   1.539   1_655  S
C639       C1353   1.539       .  S
C639        C644   1.553       .  S
C639       N1052   1.475   1_545  S
C640        C648   1.370       .  A
C640        C643   1.385       .  A
C641       C1360   1.373       .  A
C641        C644   1.400       .  A
C642        C656   1.372       .  A
C642        C645   1.389       .  A
C642       C1346   1.530       .  S
C644       C1358   1.379   1_545  A
C645       C1347   1.540       .  S
C646        N647   1.366       .  A
C646        H659   1.082       .  S
N647        C665   1.451       .  S
C648        H649   1.082       .  S
C650        N651   1.365       .  A
C650       C1352   1.383   1_565  A
C650        H660   1.077       .  S
N651        C652   1.357   1_565  A
N651       C1275   1.476       .  S
C652       C1349   1.372       .  A
C652        H658   1.071       .  S
C653        N654   1.364       .  A
C653        H655   1.082       .  S
N654        C662   1.448       .  S
C656        H657   1.082       .  S
C661        C662   1.348       .  D
C662        H664   1.086       .  S
C665        C666   1.350       .  D
C665        H667   1.086       .  S
C666        H668   1.085   1_556  S
C669        C670   1.344       .  D
C669        H671   1.086       .  S
C670        H672   1.086       .  S
C673        C674   1.346       .  D
C673        H675   1.086       .  S
C674        H676   1.084       .  S
C677        C678   1.343       .  D
C677        H679   1.087       .  S
C678        H680   1.086       .  S
C681        C682   1.342       .  D
C681        H683   1.087       .  S
C682       H1392   1.086   1_455  S
H684       C1390   1.086       .  S
C685        C686   1.345       .  D
C685        H687   1.086       .  S
C689        C690   1.347       .  D
C689        H691   1.085       .  S
C690        H692   1.086       .  S
C693        C694   1.345       .  D
C693        H695   1.085       .  S
C694        H696   1.082       .  S
C697        C698   1.340       .  D
C697        H699   1.087       .  S
C698       C1346   1.508       .  S
C698       H1408   1.086       .  S
H700       C1406   1.086   1_655  S
C701        C702   1.344       .  D
C701        H703   1.086       .  S
C702        H704   1.086       .  S
C705        C706   1.343       .  D
C705        H707   1.085       .  S
C706        H708   1.086       .  S
N709        N710   1.325       .  A
N709        C713   1.354       .  A
N709       Cu717   2.109       .  S
N710        C711   1.339       .  A
N710       Cu716   2.063       .  S
C711        C712   1.375       .  A
C711        H714   1.082       .  S
C712        C713   1.392       .  A
C712        C937   1.478       .  S
C713        H715   1.082       .  S
Cu716       N719   2.060       .  S
Cu718       N720   2.061       .  S
Cu718       N726   2.060       .  S
N719        C723   1.346       .  A
N720        C721   1.341       .  A
C721        H724   1.082       .  S
C722        C723   1.383   1_455  A
C722        C933   1.460   1_455  S
C723        H725   1.082       .  S
N726        N727   1.324       .  A
N726        C730   1.339       .  A
N727        C728   1.353       .  A
C728        C729   1.390       .  A
C728        H731   1.082       .  S
C729        C730   1.375       .  A
C729        C941   1.473       .  S
C730        H732   1.082       .  S
C733        C735   1.534       .  S
C733        C737   1.543       .  S
C733        C736   1.542       .  S
C733        C930   1.522       .  S
C734        C738   1.532       .  S
C734        C740   1.537       .  S
C734        C739   1.553       .  S
C734        N793   1.480       .  S
C735        C743   1.375       .  A
C735        C738   1.384       .  A
C736        C747   1.383       .  A
C736        C739   1.403       .  A
C737        C751   1.380       .  A
C737        C740   1.398       .  A
C738        C741   1.383       .  A
C739        C745   1.376       .  A
C740        C748   1.383       .  A
C741        N742   1.358       .  A
C741        H754   1.082       .  S
N742        C743   1.357       .  A
N742        C942   1.441       .  S
C743        H744   1.081       .  S
C745        N746   1.359       .  A
C745        H755   1.077       .  S
N746        C747   1.362       .  A
N746       C1016   1.477       .  S
C747        H753   1.075       .  S
C748        N749   1.356       .  A
C748        H750   1.083       .  S
N749        C751   1.358       .  A
N749        C938   1.446       .  S
C751        H752   1.079       .  S
N756        N757   1.324       .  A
N756        C760   1.353       .  A
N757        C758   1.342       .  A
N757       Cu763   2.076       .  S
C758        C759   1.380       .  A
C758        H761   1.082       .  S
C759        C760   1.390       .  A
C759        C925   1.481       .  S
C760        H762   1.082       .  S
Cu763       N766   2.074       .  S
Cu764       N774   2.110       .  S
Cu765       N767   2.054       .  S
Cu765       N773   2.056       .  S
N766        C770   1.347       .  A
N767        C768   1.342       .  A
C768        C769   1.383       .  A
C768        H771   1.082       .  S
C769        C917   1.456       .  S
C770        H772   1.082       .  S
N773        N774   1.324       .  A
N773        C777   1.336       .  A
N774        C775   1.356       .  A
C775        C776   1.393       .  A
C775        H778   1.082       .  S
C776        C777   1.373       .  A
C776        C921   1.476       .  S
C777        H779   1.082       .  S
C780        C782   1.545       .  S
C780        C784   1.541       .  S
C780        C783   1.559   1_556  S
C780       N1218   1.482       .  S
C781        C785   1.527       .  S
C781        C787   1.524       .  S
C781        C786   1.536       .  S
C781        C914   1.520       .  S
C782       C1262   1.388       .  A
C782        C785   1.391   1_556  A
C783        C794   1.383       .  A
C783        C786   1.403       .  A
C784       C1270   1.384       .  A
C784        C787   1.386   1_556  A
C785        C788   1.368       .  A
C786        C792   1.372       .  A
C787        C795   1.369       .  A
C788       N1261   1.353   1_554  A
C788        H801   1.083       .  S
N789       C1024   1.361       .  A
N789        C790   1.361       .  A
N789        C922   1.445       .  S
C790       C1018   1.385       .  A
C790        H791   1.082       .  S
C792        N793   1.358       .  A
C792        H802   1.073       .  S
N793        C794   1.365       .  A
C794        H800   1.077       .  S
C795       N1268   1.358   1_554  A
C795        H797   1.082       .  S
N796       C1031   1.360       .  A
N796        C798   1.362       .  A
N796        C926   1.447       .  S
C798       C1020   1.386       .  A
C798        H799   1.082       .  S
C803        C805   1.547       .  S
C803        C806   1.564       .  S
C804        C808   1.525       .  S
C804        C809   1.530       .  S
C804        C918   1.508       .  S
C805        C813   1.388       .  A
C805        C808   1.384       .  A
C806        C809   1.400       .  A
C807        C821   1.388       .  A
C807        C810   1.388       .  A
C808        C811   1.370       .  A
C810        C818   1.371       .  A
C811        N812   1.358       .  A
C811        H824   1.082       .  S
N812        C813   1.364       .  A
N812        C905   1.447       .  S
C813        H814   1.082       .  S
C815        N816   1.360       .  A
C815        H825   1.072   1_655  S
N816        C817   1.364       .  A
C817        H823   1.076   1_565  S
C818        N819   1.354       .  A
C818        H820   1.083       .  S
N819        C821   1.363       .  A
N819        C910   1.439       .  S
C821        H822   1.082       .  S
N826        N827   1.325       .  A
N826        C830   1.352       .  A
N826       Cu834   2.104       .  S
N827        C828   1.343       .  A
N827       Cu833   2.082       .  S
C828        C829   1.386       .  A
C828        H831   1.081       .  S
C829        C830   1.389       .  A
C829        C909   1.489       .  S
C830        H832   1.082       .  S
Cu833       N836   2.082       .  S
Cu834       N844   2.103       .  S
Cu835       N837   2.072       .  S
Cu835       N843   2.073       .  S
N836        N837   1.319       .  A
N836        C840   1.346       .  A
N837        C838   1.346       .  A
C838        C839   1.385       .  A
C838        H841   1.082       .  S
C839        C840   1.387       .  A
C839        C913   1.472       .  S
C840        H842   1.082       .  S
N843        N844   1.324       .  A
N843        C847   1.341       .  A
N844        C845   1.354       .  A
C845        C846   1.391       .  A
C845        H848   1.082       .  S
C846        C847   1.379       .  A
C846        C906   1.480       .  S
C847        H849   1.082       .  S
N850        N851   1.324       .  A
N850        C854   1.350       .  A
N850       Cu858   2.093       .  S
N851        C852   1.343       .  A
N851       Cu857   2.083       .  S
C852        C853   1.388       .  A
C852        H855   1.081       .  S
C853        C854   1.386       .  A
C853        C897   1.488       .  S
C854        H856   1.082       .  S
Cu857       N860   2.081       .  S
Cu858       N868   2.093       .  S
Cu859       N861   2.079       .  S
Cu859       N867   2.080       .  S
N860        N861   1.320       .  A
N860        C864   1.349       .  A
N861        C862   1.345       .  A
C862        C863   1.391       .  A
C862        H865   1.081       .  S
C863        C864   1.387       .  A
C863        C929   1.488       .  S
C864        H866   1.082       .  S
N867        N868   1.324       .  A
N867        C871   1.342       .  A
N868        C869   1.353       .  A
C869        C870   1.389       .  A
C869        H872   1.082       .  S
C870        C871   1.381       .  A
C870        C902   1.480       .  S
C871        H873   1.082       .  S
C874        C876   1.525       .  S
C874        C877   1.534       .  S
C875        C879   1.548       .  S
C875        C880   1.559   1_556  S
C876        C884   1.368       .  A
C876        C879   1.384   1_554  A
C877        C880   1.402       .  A
C878        C892   1.372       .  A
C878        C881   1.386   1_554  A
C879       C1354   1.392       .  A
C881       C1361   1.391       .  A
C882        N883   1.364       .  A
C882       C1115   1.390       .  A
C882        H895   1.082       .  S
N883       C1120   1.357       .  A
N883        C901   1.447       .  S
C884       N1355   1.357   1_554  A
C884        H885   1.082       .  S
C886        N887   1.366       .  A
C886        H896   1.076       .  S
N887        C888   1.357   1_565  A
C888        H894   1.070       .  S
C889        N890   1.365       .  A
C889       C1117   1.391       .  A
C889        H891   1.082       .  S
N890       C1128   1.351       .  A
N890        C898   1.437       .  S
C892       N1362   1.359   1_554  A
C892        H893   1.082       .  S
C897        C898   1.344       .  D
C897       H1135   1.086       .  S
C898        H900   1.084       .  S
H899       C1369   1.085       .  S
C901        C902   1.349       .  D
C901        H903   1.086       .  S
C902        H904   1.086       .  S
C905        C906   1.348       .  D
C905        H907   1.086       .  S
C906        H908   1.085       .  S
C909        C910   1.346       .  D
C909        H911   1.086       .  S
C910        H912   1.085       .  S
C913        C914   1.348       .  D
C913        H915   1.086       .  S
C914        H916   1.086       .  S
C917        C918   1.340       .  D
C917        H919   1.087       .  S
C921        C922   1.343       .  D
C921        H923   1.086       .  S
C922       H1160   1.086       .  S
H924       C1394   1.086       .  S
C925        C926   1.348       .  D
C925        H927   1.085       .  S
C926        H928   1.086       .  S
C929        C930   1.344       .  D
C929        H931   1.085       .  S
C930        H932   1.081       .  S
C933        C934   1.342       .  D
C933        H935   1.087       .  S
C937        C938   1.344       .  D
C937        H939   1.085       .  S
C938        H940   1.086       .  S
C941        C942   1.342       .  D
C941        H943   1.086       .  S
C942        H944   1.086       .  S
N945        N946   1.326       .  A
N945        C949   1.353       .  A
N945       Cu953   2.103   1_655  S
N946        C947   1.341       .  A
N946       Cu952   2.079       .  S
C947        C948   1.378       .  A
C947        H950   1.082       .  S
C948        C949   1.390       .  A
C948       C1173   1.479       .  S
C949        H951   1.082       .  S
Cu952       N955   2.077       .  S
Cu954       N956   2.059       .  S
Cu954       N962   2.058       .  S
N955        C959   1.349       .  A
N956        C957   1.341       .  A
C957        H960   1.082       .  S
C958        C959   1.388   1_455  A
C958       C1169   1.464       .  S
C959        H961   1.082       .  S
N962        N963   1.323       .  A
N962        C966   1.338       .  A
N963        C964   1.354       .  A
C964        C965   1.391       .  A
C964        H967   1.082       .  S
C965        C966   1.374       .  A
C965       C1177   1.474       .  S
C966        H968   1.082       .  S
C969        C971   1.528       .  S
C969        C973   1.532       .  S
C969        C972   1.533       .  S
C969       C1166   1.504       .  S
C970        C974   1.536       .  S
C970        C976   1.539       .  S
C970        C975   1.557       .  S
C970       N1029   1.471       .  S
C971        C979   1.373       .  A
C971        C974   1.382       .  A
C972        C983   1.373       .  A
C972        C975   1.399       .  A
C973        C987   1.376       .  A
C973        C976   1.391       .  A
C974        C977   1.382       .  A
C975        C981   1.383       .  A
C976        C984   1.386       .  A
C977        N978   1.359       .  A
C977        H990   1.083       .  S
N978        C979   1.360       .  A
N978       C1178   1.441       .  S
C979        H980   1.082       .  S
C981        N982   1.367       .  A
C981        H991   1.078       .  S
N982        C983   1.357       .  A
N982       C1252   1.478       .  S
C983        H989   1.071       .  S
C984        N985   1.358       .  A
C984        H986   1.082       .  S
N985        C987   1.358       .  A
N985       C1174   1.446       .  S
C987        H988   1.082       .  S
N992        N993   1.324       .  A
N992        C996   1.351       .  A
N993        C994   1.339       .  A
N993       Cu999   2.058       .  S
C994        C995   1.375       .  A
C994        H997   1.082       .  S
C995        C996   1.389       .  A
C995       C1161   1.471       .  S
C996        H998   1.082       .  S
Cu999      N1002   2.056   1_655  S
Cu1000     N1010   2.084       .  S
Cu1001     N1003   2.076       .  S
Cu1001     N1009   2.077       .  S
N1002      C1006   1.345   1_455  A
N1003      C1004   1.344       .  A
C1004      C1005   1.384       .  A
C1004      H1007   1.082       .  S
C1005      C1153   1.467       .  S
C1006      H1008   1.082       .  S
N1009      N1010   1.323       .  A
N1009      C1013   1.342       .  A
N1010      C1011   1.348       .  A
C1011      C1012   1.385       .  A
C1011      H1014   1.082       .  S
C1012      C1013   1.387       .  A
C1012      C1157   1.484       .  S
C1013      H1015   1.081       .  S
C1016      C1018   1.539       .  S
C1016      C1020   1.543       .  S
C1016      C1019   1.552       .  S
C1017      C1021   1.531       .  S
C1017      C1023   1.529       .  S
C1017      C1022   1.532       .  S
C1017      C1150   1.509       .  S
C1018      C1021   1.384       .  A
C1019      C1030   1.375       .  A
C1019      C1022   1.403       .  A
C1020      C1023   1.385       .  A
C1021      C1024   1.372       .  A
C1022      C1028   1.375       .  A
C1023      C1031   1.373       .  A
C1024      H1037   1.082       .  S
N1025      C1260   1.352       .  A
N1025      C1026   1.361       .  A
N1025      C1158   1.433       .  S
C1026      C1254   1.386       .  A
C1026      H1027   1.082       .  S
C1028      N1029   1.356       .  A
C1028      H1038   1.074       .  S
N1029      C1030   1.365       .  A
C1030      H1036   1.078       .  S
C1031      H1033   1.082       .  S
N1032      C1267   1.359       .  A
N1032      C1034   1.359       .  A
N1032      C1162   1.440       .  S
C1034      C1256   1.381       .  A
C1034      H1035   1.082       .  S
C1039      C1041   1.540       .  S
C1039      C1042   1.554       .  S
C1040      C1044   1.528       .  S
C1040      C1045   1.534       .  S
C1040      C1154   1.515       .  S
C1041      C1049   1.386       .  A
C1041      C1044   1.383       .  A
C1042      C1045   1.401       .  A
C1043      C1057   1.383       .  A
C1043      C1046   1.390       .  A
C1044      C1047   1.372       .  A
C1046      C1054   1.375       .  A
C1047      N1048   1.358       .  A
C1047      H1060   1.082       .  S
N1048      C1049   1.361       .  A
N1048      C1141   1.443       .  S
C1049      H1050   1.082       .  S
C1051      N1052   1.360       .  A
C1051      H1061   1.075   1_655  S
N1052      C1053   1.362       .  A
C1053      H1059   1.077   1_565  S
C1054      N1055   1.360       .  A
C1054      H1056   1.082       .  S
N1055      C1057   1.359       .  A
N1055      C1146   1.445       .  S
C1057      H1058   1.082       .  S
N1062      N1063   1.326       .  A
N1062      C1066   1.353       .  A
N1062     Cu1070   2.107       .  S
N1063      C1064   1.341       .  A
N1063     Cu1069   2.073       .  S
C1064      C1065   1.377       .  A
C1064      H1067   1.082       .  S
C1065      C1066   1.390       .  A
C1065      C1145   1.478       .  S
C1066      H1068   1.082       .  S
Cu1069     N1072   2.071       .  S
Cu1070     N1080   2.105       .  S
Cu1071     N1073   2.052       .  S
Cu1071     N1079   2.052       .  S
N1072      N1073   1.319       .  A
N1072      C1076   1.348       .  A
N1073      C1074   1.339       .  A
C1074      C1075   1.377       .  A
C1074      H1077   1.082       .  S
C1075      C1076   1.386       .  A
C1075      C1149   1.462       .  S
C1076      H1078   1.082       .  S
N1079      N1080   1.322       .  A
N1079      C1083   1.339       .  A
N1080      C1081   1.354       .  A
C1081      C1082   1.392       .  A
C1081      H1084   1.082       .  S
C1082      C1083   1.375       .  A
C1082      C1142   1.475       .  S
C1083      H1085   1.082       .  S
N1086      N1087   1.326       .  A
N1086      C1090   1.354       .  A
N1086     Cu1094   2.109       .  S
N1087      C1088   1.338       .  A
N1087     Cu1093   2.063       .  S
C1088      C1089   1.373       .  A
C1088      H1091   1.082       .  S
C1089      C1090   1.391       .  A
C1089      C1133   1.475       .  S
C1090      H1092   1.082       .  S
Cu1093     N1096   2.061       .  S
Cu1094     N1104   2.108       .  S
Cu1095     N1097   2.040       .  S
Cu1095     N1103   2.041       .  S
N1096      N1097   1.316       .  A
N1096      C1100   1.344       .  A
N1097      C1098   1.340       .  A
C1098      C1099   1.378       .  A
C1098      H1101   1.082       .  S
C1099      C1100   1.385       .  A
C1099      C1165   1.457       .  S
C1100      H1102   1.082       .  S
N1103      N1104   1.323       .  A
N1103      C1107   1.335       .  A
N1104      C1105   1.355       .  A
C1105      C1106   1.393       .  A
C1105      H1108   1.082       .  S
C1106      C1107   1.371       .  A
C1106      C1138   1.471       .  S
C1107      H1109   1.082       .  S
C1110      C1112   1.527       .  S
C1110      C1113   1.537       .  S
C1111      C1115   1.546       .  S
C1111      C1116   1.563       .  S
C1112      C1120   1.370       .  A
C1112      C1115   1.385       .  A
C1113      C1116   1.403       .  A
C1114      C1128   1.366       .  A
C1114      C1117   1.389       .  A
C1118      N1119   1.361       .  A
C1118      C1351   1.386       .  A
C1118      H1131   1.082       .  S
N1119      C1356   1.358       .  A
N1119      C1137   1.442       .  S
C1120      H1121   1.082       .  S
C1122      N1123   1.363       .  A
C1122      H1132   1.077       .  S
N1123      C1124   1.358   1_565  A
C1124      H1130   1.073   1_655  S
C1125      N1126   1.359       .  A
C1125      C1353   1.382       .  A
C1125      H1127   1.082       .  S
N1126      C1364   1.360       .  A
N1126      C1134   1.443       .  S
C1128      H1129   1.083       .  S
C1133      C1134   1.342       .  D
C1133      H1371   1.086       .  S
C1134      H1136   1.086       .  S
C1137      C1138   1.342       .  D
C1137      H1139   1.086       .  S
C1138      H1140   1.086       .  S
C1141      C1142   1.343       .  D
C1141      H1143   1.086       .  S
C1142      H1144   1.086       .  S
C1145      C1146   1.345       .  D
C1145      H1147   1.085       .  S
C1146      H1148   1.086       .  S
C1149      C1150   1.342       .  D
C1149      H1151   1.087       .  S
C1150      H1152   1.086       .  S
C1153      C1154   1.344       .  D
C1153      H1155   1.087       .  S
C1157      C1158   1.343       .  D
C1157      H1159   1.086       .  S
C1158      H1396   1.084       .  S
C1161      C1162   1.342       .  D
C1161      H1163   1.085       .  S
C1162      H1164   1.086       .  S
C1165      C1166   1.339       .  D
C1165      H1167   1.087       .  S
C1166      H1168   1.086       .  S
C1169      C1170   1.344       .  D
C1169      H1171   1.087       .  S
C1173      C1174   1.346       .  D
C1173      H1175   1.085       .  S
C1174      H1176   1.086       .  S
C1177      C1178   1.341       .  D
C1177      H1179   1.086       .  S
C1178      H1180   1.086       .  S
N1181      N1182   1.324       .  A
N1181      C1185   1.358       .  A
N1181     Cu1189   2.117   1_655  S
N1182      C1183   1.337       .  A
N1182     Cu1188   2.058       .  S
C1183      C1184   1.374       .  A
C1183      H1186   1.082       .  S
C1184      C1185   1.395       .  A
C1184      C1409   1.480       .  S
C1185      H1187   1.082       .  S
Cu1188     N1191   2.057       .  S
Cu1190     N1192   2.058       .  S
Cu1190     N1198   2.060       .  S
N1191      C1195   1.343       .  A
N1192      C1193   1.344       .  A
C1193      H1196   1.082       .  S
C1194      C1195   1.382   1_455  A
C1194      C1405   1.463       .  S
C1195      H1197   1.082       .  S
N1198      N1199   1.326       .  A
N1198      C1202   1.337       .  A
N1199      C1200   1.356       .  A
C1200      C1201   1.393       .  A
C1200      H1203   1.082       .  S
C1201      C1202   1.373       .  A
C1201      C1413   1.477       .  S
C1202      H1204   1.082       .  S
C1205      C1207   1.540       .  S
C1205      C1209   1.534       .  S
C1205      C1208   1.542       .  S
C1205      C1402   1.521       .  S
C1206      C1210   1.536       .  S
C1206      C1212   1.538       .  S
C1206      C1211   1.558       .  S
C1206      N1265   1.477       .  S
C1207      C1215   1.379       .  A
C1207      C1210   1.391       .  A
C1208      C1219   1.378       .  A
C1208      C1211   1.402       .  A
C1209      C1223   1.375       .  A
C1209      C1212   1.384       .  A
C1210      C1213   1.383       .  A
C1211      C1217   1.383       .  A
C1212      C1220   1.387       .  A
C1213      N1214   1.356       .  A
C1213      H1226   1.083       .  S
N1214      C1215   1.360       .  A
N1214      C1414   1.445       .  S
C1215      H1216   1.080       .  S
C1217      N1218   1.365       .  A
C1217      H1227   1.077       .  S
N1218      C1219   1.362       .  A
C1219      H1225   1.072       .  S
C1220      N1221   1.362       .  A
C1220      H1222   1.082       .  S
N1221      C1223   1.360       .  A
N1221      C1410   1.448       .  S
C1223      H1224   1.081       .  S
N1228      N1229   1.324       .  A
N1228      C1232   1.352       .  A
N1229      C1230   1.339       .  A
N1229     Cu1235   2.059       .  S
C1230      C1231   1.375       .  A
C1230      H1233   1.082       .  S
C1231      C1232   1.389       .  A
C1231      C1397   1.473       .  S
C1232      H1234   1.082       .  S
Cu1235     N1238   2.057       .  S
Cu1236     N1246   2.086       .  S
Cu1237     N1239   2.074       .  S
Cu1237     N1245   2.074       .  S
N1238      C1242   1.343       .  A
N1239      C1240   1.343       .  A
C1240      C1241   1.384       .  A
C1240      H1243   1.082       .  S
C1241      C1389   1.470       .  S
C1242      H1244   1.082       .  S
N1245      N1246   1.322       .  A
N1245      C1249   1.341       .  A
N1246      C1247   1.350       .  A
C1247      C1248   1.387       .  A
C1247      H1250   1.082       .  S
C1248      C1249   1.385       .  A
C1248      C1393   1.485       .  S
C1249      H1251   1.081       .  S
C1252      C1254   1.540       .  S
C1252      C1256   1.535       .  S
C1252      C1255   1.560       .  S
C1253      C1257   1.525       .  S
C1253      C1259   1.529       .  S
C1253      C1258   1.534       .  S
C1253      C1386   1.513       .  S
C1254      C1257   1.387       .  A
C1255      C1266   1.381       .  A
C1255      C1258   1.403       .  A
C1256      C1259   1.386       .  A
C1257      C1260   1.368       .  A
C1258      C1264   1.377       .  A
C1259      C1267   1.369       .  A
C1260      H1273   1.083       .  S
N1261      C1262   1.364       .  A
N1261      C1394   1.437       .  S
C1262      H1263   1.082       .  S
C1264      N1265   1.357       .  A
C1264      H1274   1.073       .  S
N1265      C1266   1.364       .  A
C1266      H1272   1.077       .  S
C1267      H1269   1.082       .  S
N1268      C1270   1.360       .  A
N1268      C1398   1.441       .  S
C1270      H1271   1.082       .  S
C1275      C1277   1.536       .  S
C1275      C1278   1.558       .  S
C1276      C1280   1.529       .  S
C1276      C1281   1.541       .  S
C1276      C1390   1.519       .  S
C1277      C1285   1.383       .  A
C1277      C1280   1.385       .  A
C1278      C1281   1.403       .  A
C1279      C1293   1.386       .  A
C1279      C1282   1.386       .  A
C1280      C1283   1.370       .  A
C1282      C1290   1.370       .  A
C1283      N1284   1.358       .  A
C1283      H1296   1.082       .  S
N1284      C1285   1.359       .  A
N1284      C1377   1.440       .  S
C1285      H1286   1.082       .  S
C1287      N1288   1.358       .  A
C1287      H1297   1.071       .  S
N1288      C1289   1.365       .  A
C1289      H1295   1.077   1_565  S
C1290      N1291   1.354       .  A
C1290      H1292   1.083       .  S
N1291      C1293   1.362       .  A
N1291      C1382   1.435       .  S
C1293      H1294   1.082       .  S
N1298      N1299   1.322       .  A
N1298      C1302   1.350       .  A
N1298     Cu1306   2.090       .  S
N1299      C1300   1.341       .  A
N1299     Cu1305   2.067       .  S
C1300      C1301   1.385       .  A
C1300      H1303   1.081       .  S
C1301      C1302   1.388       .  A
C1301      C1381   1.485       .  S
C1302      H1304   1.082       .  S
Cu1305     N1308   2.067       .  S
Cu1306     N1316   2.090       .  S
Cu1307     N1309   2.065       .  S
Cu1307     N1315   2.067       .  S
N1308      N1309   1.318       .  A
N1308      C1312   1.343       .  A
N1309      C1310   1.345       .  A
C1310      C1311   1.384       .  A
C1310      H1313   1.082       .  S
C1311      C1312   1.383       .  A
C1311      C1385   1.463       .  S
C1312      H1314   1.082       .  S
N1315      N1316   1.324       .  A
N1315      C1319   1.340       .  A
N1316      C1317   1.350       .  A
C1317      C1318   1.388       .  A
C1317      H1320   1.082       .  S
C1318      C1319   1.377       .  A
C1318      C1378   1.472       .  S
C1319      H1321   1.082       .  S
N1322      N1323   1.325       .  A
N1322      C1326   1.357       .  A
N1322     Cu1330   2.117       .  S
N1323      C1324   1.341       .  A
N1323     Cu1329   2.080       .  S
C1324      C1325   1.379       .  A
C1324      H1327   1.082       .  S
C1325      C1326   1.394       .  A
C1325      C1369   1.486       .  S
C1326      H1328   1.082       .  S
Cu1329     N1332   2.078       .  S
Cu1330     N1340   2.117       .  S
Cu1331     N1333   2.075       .  S
Cu1331     N1339   2.076       .  S
N1332      N1333   1.318       .  A
N1332      C1336   1.346       .  A
N1333      C1334   1.348       .  A
C1334      C1335   1.386       .  A
C1334      H1337   1.082       .  S
C1335      C1336   1.391       .  A
C1335      C1401   1.487       .  S
C1336      H1338   1.081       .  S
N1339      N1340   1.326       .  A
N1339      C1343   1.340       .  A
N1340      C1341   1.357       .  A
C1341      C1342   1.393       .  A
C1341      H1344   1.082       .  S
C1342      C1343   1.377       .  A
C1342      C1374   1.481       .  S
C1343      H1345   1.082       .  S
C1346      C1348   1.524       .  S
C1346      C1349   1.531       .  S
C1347      C1351   1.539       .  S
C1347      C1352   1.558       .  S
C1348      C1356   1.367       .  A
C1348      C1351   1.383       .  A
C1349      C1352   1.399       .  A
C1350      C1364   1.372       .  A
C1350      C1353   1.389       .  A
C1354      N1355   1.366       .  A
C1354      H1367   1.082       .  S
N1355      C1373   1.450       .  S
C1356      H1357   1.082       .  S
C1358      N1359   1.365       .  A
C1358      H1368   1.078       .  S
N1359      C1360   1.356   1_565  A
C1360      H1366   1.072       .  S
C1361      N1362   1.365       .  A
C1361      H1363   1.082       .  S
N1362      C1370   1.451       .  S
C1364      H1365   1.082       .  S
C1369      C1370   1.350       .  D
C1370      H1372   1.086       .  S
C1373      C1374   1.349       .  D
C1373      H1375   1.086       .  S
C1374      H1376   1.085       .  S
C1377      C1378   1.343       .  D
C1377      H1379   1.086       .  S
C1378      H1380   1.086       .  S
C1381      C1382   1.345       .  D
C1381      H1383   1.086       .  S
C1382      H1384   1.085       .  S
C1385      C1386   1.343       .  D
C1385      H1387   1.087       .  S
C1386      H1388   1.086       .  S
C1389      C1390   1.348       .  D
C1389      H1391   1.087       .  S
C1393      C1394   1.345       .  D
C1393      H1395   1.086       .  S
C1397      C1398   1.343       .  D
C1397      H1399   1.086       .  S
C1398      H1400   1.086       .  S
C1401      C1402   1.344       .  D
C1401      H1403   1.085       .  S
C1402      H1404   1.082       .  S
C1405      C1406   1.340       .  D
C1405      H1407   1.087       .  S
C1409      C1410   1.346       .  D
C1409      H1411   1.085       .  S
C1410      H1412   1.086       .  S
C1413      C1414   1.342       .  D
C1413      H1415   1.085       .  S
C1414      H1416   1.086       .  S
