geometry optimzed in LAMMPS
_audit_creation_date              2020-11-30 
_audit_creation_method            'lammps2cif' 
_symmetry_space_group_name_H-M    'P1' 
_symmetry_Int_Tables_number       1 
_symmetry_cell_setting            triclinic 
loop_ 
_symmetry_equiv_pos_as_xyz 
  x,y,z 
_cell_length_a                    33.62544379 
_cell_length_b                    33.84517867716555 
_cell_length_c                    50.458441224576035 
_cell_angle_alpha                 91.13114737543172 
_cell_angle_beta                  89.04489574131301 
_cell_angle_gamma                 121.66066943606981 
loop_ 
_atom_site_label 
_atom_site_type_symbol 
_atom_site_fract_x 
_atom_site_fract_y 
_atom_site_fract_z 
_atom_site_charge 
C1          C  0.33405342  0.17031316  0.02819934     0.30700
C2          C  0.33593188  0.16520049  0.47473919     0.30700
C3          C  0.35669106  0.14443285  0.01640676    -0.05500
C4          C  0.28537848  0.14514658  0.01457425    -0.06300
C5          C  0.35906592  0.21741331  0.01413732    -0.06200
C6          C  0.35754440  0.14099326  0.48897447    -0.05500
C7          C  0.28757262  0.14097844  0.48735836    -0.06300
C8          C  0.36176962  0.21365933  0.48703796    -0.06200
C9          C  0.37464625  0.11222701  0.48339259    -0.31600
N10         N  0.38607673  0.10117243  0.50652184     0.14900
C11         C  0.37505281  0.12020359  0.02682145    -0.31600
H12         H  0.37978399  0.11636555  0.04758434     0.16900
C13         C  0.24328184  0.11615846  0.47781078    -0.30500
N14         N  0.21312718  0.10755726  0.99803069     0.13700
C15         C  0.23803429  0.12545815  0.02072058    -0.30500
C16         C  0.38706683  0.25711723  0.47689881    -0.30800
N17         N  0.39880715  0.28834145  0.99688379     0.14200
H18         H  0.39502840  0.26516338  0.45613163     0.16800
C19         C  0.38110203  0.26471921  0.01990472    -0.30800
H20         H  0.38432340  0.28064557  0.03915728     0.16800
H21         H  0.22284400  0.12448553  0.03995261     0.16800
H22         H  0.37762763  0.09871746  0.46439743     0.16900
H23         H  0.23369346  0.10658162  0.45726285     0.16800
C24         C  0.33526610  0.16889369  0.27751043     0.30700
C25         C  0.34063678  0.15956448  0.22450747     0.30700
C26         C  0.36112840  0.14458888  0.26821231    -0.05500
C27         C  0.28754612  0.14015205  0.26311416    -0.06300
C28         C  0.35868601  0.21450551  0.26207153    -0.06200
C29         C  0.36372346  0.13902694  0.24097235    -0.05500
C30         C  0.29127110  0.13388367  0.23624878    -0.06300
C31         C  0.36391357  0.20918547  0.23540692    -0.06200
C32         C  0.38309051  0.11174872  0.23760015    -0.31600
N33         N  0.39435793  0.10365838  0.26166303     0.14900
C34         C  0.38075500  0.12297259  0.28059921    -0.31600
H35         H  0.38405222  0.12064950  0.30173275     0.16900
C36         C  0.24710721  0.10832080  0.22599643    -0.30500
N37         N  0.21600534  0.10133586  0.24542408     0.13700
C38         C  0.24001963  0.12103607  0.26818911    -0.30500
C39         C  0.38803616  0.25237571  0.22445648    -0.30800
N40         N  0.39594691  0.28437968  0.24349896     0.14200
H41         H  0.39776523  0.25960882  0.20378756     0.16800
C42         C  0.37734636  0.26169338  0.26664504    -0.30800
H43         H  0.37750654  0.27818977  0.28523361     0.16800
H44         H  0.22415984  0.12275856  0.28665974     0.16800
H45         H  0.38713138  0.09650730  0.21955000     0.16900
H46         H  0.23834478  0.09808153  0.20543715     0.16800
C47         C  0.16383295  0.08455107  0.99386718     0.43100
N48         N  0.10378126  0.06492571  0.47011627     0.02000
C49         C  0.38840184  0.02681187  0.50513725    -0.05800
H50         H  0.42445481  0.43711377  0.06387166     0.07500
C51         C  0.44485475  0.35713576  0.46682548    -0.06200
Co52       Co  0.02817928  0.06825827  0.99998441     0.74200
N53         N  0.46987224  0.48283994  0.03288598    -0.25400
Co54       Co  0.42840680  0.46260185  0.49702777     0.74100
C55         C  0.42590617  0.33747867  0.49277398     0.43200
N56         N  0.02875551  0.44646821  0.43040009     0.01600
N57         N  0.43278616  0.40406147  0.49001644     0.01800
N58         N  0.45604608  0.09684053  0.50756319    -0.46200
H59         H  0.13081530  0.09811978  0.03070681     0.07500
N60         N  0.50883730  0.02418303  0.03412418     0.02000
N61         N  0.38811073  0.44598271  0.46233437     0.01800
C62         C  0.33013093  0.43095163  0.43728265     0.43400
N63         N  0.06702106  0.48811503  0.43114446    -0.24800
C64         C  0.04605710  0.15173297  0.46747177    -0.05700
N65         N  0.14597878  0.07150004  0.46941792    -0.45900
N66         N  0.34755128  0.44322194  0.46198513    -0.46200
C67         C  0.06394519  0.17157601  0.44148764     0.43200
N68         N  0.46388257  0.06268678  0.50386206     0.02000
N69         N  0.02114267  0.02570914  0.40043030    -0.24800
N70         N  0.09208575  0.07266382  0.49402403    -0.25300
N71         N  0.48300216  0.48381436  0.39918018     0.01700
H72         H  0.06624913  0.07187567  0.36952894     0.07600
H73         H  0.36281054  0.41447445  0.40138852     0.07600
N74         N  0.42513204  0.02162296  0.50240271    -0.25400
N75         N  0.44674327  0.39739338  0.46655794    -0.25000
N76         N  0.05700053  0.10479577  0.44339545     0.02000
C77         C  0.49323436  0.50357684  0.07628194     0.43400
C78         C  0.10449668  0.48386385  0.42946775    -0.06300
N79         N  0.39972690  0.43687494  0.43877226    -0.25000
H80         H  0.45188503  0.34162669  0.44988141     0.07600
N81         N  0.02316811  0.03763576  0.05921315    -0.46200
H82         H  0.14067233  0.51186776  0.43015496     0.07600
C83         C  0.49861839  0.00436664  0.35707999     0.43300
C84         C  0.12849273  0.08616888  0.01043241    -0.05800
Co85       Co  0.06256050  0.04681803  0.43608492     0.73800
N86         N  0.03777690  0.41279002  0.42831358    -0.45900
C87         C  0.40928180  0.07645429  0.50923985     0.43500
N88         N  0.07030747  0.14065676  0.42756949    -0.45900
Co89       Co  0.46360476  0.44032928  0.43354505     0.73900
C90         C  0.36465746  0.42599627  0.42172524    -0.06300
C91         C  0.45759066  0.46722227  0.05824647    -0.05800
N92         N  0.04404421  0.11138674  0.46720086    -0.25400
N93         N  0.41892234  0.36842278  0.00611882    -0.46100
H94         H  0.35197745  0.99942626  0.50437790     0.07500
C95         C  0.03342377  0.04132937  0.37509928    -0.06200
Cl96       Cl  0.49571109  0.00443250  0.46668231    -0.49200
C97         C  0.08479868  0.43414855  0.42721236     0.43300
H98         H  0.04020291  0.16740279  0.48478969     0.07500
N99         N  0.46908114  0.46998885  0.37408512    -0.45900
C100        C  0.16682024  0.08007145  0.24090139     0.43100
N101        N  0.10575804  0.06125824  0.21816279     0.02000
C102        C  0.39501733  0.02889030  0.26133597    -0.05800
H103        H  0.42953024  0.43508134  0.31408814     0.07500
C104        C  0.43661286  0.35371242  0.21270263    -0.06200
Co105      Co  0.03311819  0.06679757  0.25060158     0.74200
N106        N  0.47499450  0.48038152  0.28305242    -0.25400
Co107      Co  0.43097522  0.46218811  0.24868698     0.74100
C108        C  0.42018509  0.33338848  0.23870470     0.43200
N109        N  0.02141199  0.44415119  0.17698925     0.01600
N110        N  0.43212320  0.40224752  0.23920376     0.01800
N111        N  0.46339997  0.09786848  0.26225071    -0.46200
H112        H  0.13539438  0.09261771  0.27874349     0.07500
N113        N  0.51425057  0.02150783  0.28417794     0.02000
N114        N  0.38715200  0.44680400  0.21595923     0.00200
C115        C  0.32564496  0.42806659  0.19398028     0.43400
N116        N  0.06140732  0.48425507  0.17802298    -0.24800
C117        C  0.05579031  0.15433529  0.22033242    -0.05700
N118        N  0.14815244  0.06796001  0.21648299    -0.45900
N119        N  0.34481195  0.43990556  0.21820023    -0.46200
C120        C  0.07304284  0.17476185  0.19436512     0.43200
N121        N  0.46993050  0.06322460  0.25682741     0.02000
N122        N  0.01807274  0.02735337  0.15044525    -0.24800
N123        N  0.09532726  0.06857425  0.24254911    -0.25300
N124        N  0.47825223  0.48670578  0.14939222     0.01700
H125        H  0.06369787  0.07217151  0.11926771     0.07600
H126        H  0.35606432  0.41588495  0.15555203     0.07600
N127        N  0.43054346  0.02259214  0.25618086    -0.25400
N128        N  0.44247043  0.39579096  0.21464845    -0.25000
N129        N  0.06078258  0.10564361  0.19426844     0.02000
C130        C  0.49904551  0.50051998  0.32626437     0.43400
C131        C  0.09628006  0.47646815  0.17414158    -0.06300
N132        N  0.39717800  0.44002420  0.19136525    -0.25000
H133        H  0.43974299  0.33805975  0.19453779     0.07600
N134        N  0.02897751  0.03462921  0.30923542    -0.46200
H135        H  0.13322153  0.50232787  0.17489621     0.07600
C136        C  0.99344905  0.00741185  0.10719864     0.43300
C137        C  0.13218919  0.08114022  0.25831143    -0.05800
Co138      Co  0.06193883  0.04546275  0.18509393     0.73800
N139        N  0.02667618  0.40849757  0.17260181    -0.45900
C140        C  0.41698730  0.07868095  0.26612489     0.43500
N141        N  0.07595383  0.14285366  0.17921619    -0.45900
Co142      Co  0.45897953  0.44140719  0.18298921     0.73900
C143        C  0.35991563  0.42750564  0.17598571    -0.06300
C144        C  0.46306908  0.46452340  0.30835055    -0.05800
N145        N  0.04970887  0.11213988  0.21865389    -0.25400
N146        N  0.41744151  0.36504692  0.25417537    -0.46100
H147        H  0.35832993  0.00211678  0.26128960     0.07500
C148        C  0.03002108  0.04301763  0.12508301    -0.06200
Cl149      Cl  0.49630123  0.00405306  0.21682438    -0.49200
C150        C  0.07290133  0.42638151  0.16979139     0.43300
H151        H  0.05270158  0.17019978  0.23840908     0.07500
N152        N  0.46322585  0.47369377  0.12435186    -0.45900
C153        C  0.15806022  0.33709846  0.40553377     0.30700
C154        C  0.15755991  0.34440209  0.45929859     0.30700
C155        C  0.13821487  0.36640386  0.41747655    -0.05500
C156        C  0.13103339  0.29130534  0.42045206    -0.06300
C157        C  0.20727124  0.36247969  0.41833438    -0.06200
C158        C  0.13808756  0.36993609  0.44495093    -0.05500
C159        C  0.13163152  0.29564206  0.44756721    -0.06300
C160        C  0.20608382  0.36639909  0.44586046    -0.06200
C161        C  0.12088757  0.39798726  0.45169462    -0.31600
N162        N  0.10966985  0.41067065  0.42906432     0.14900
C163        C  0.12128198  0.39303771  0.40815679    -0.31600
H164        H  0.11732262  0.39929692  0.38771751     0.16900
C165        C  0.10751307  0.25210951  0.45789306    -0.30500
N166        N  0.09163120  0.22073420  0.43769102     0.13700
C167        C  0.10593044  0.24414738  0.41448627    -0.30500
C168        C  0.25087529  0.39623788  0.45401912    -0.30800
N169        N  0.28044671  0.40663884  0.43331071     0.14200
H170        H  0.26170516  0.40996728  0.47390227     0.16800
C171        C  0.25448434  0.38775884  0.41097833    -0.30800
H172        H  0.26876379  0.39341703  0.39114226     0.16800
H173        H  0.09869832  0.22822947  0.39494409     0.16800
H174        H  0.11633520  0.40802283  0.47144869     0.16900
H175        H  0.10223231  0.24402383  0.47876865     0.16800
C176        C  0.16001332  0.34119852  0.15717364     0.30700
C177        C  0.15050900  0.34816337  0.21028788     0.30700
C178        C  0.13074980  0.36232025  0.16614763    -0.05500
C179        C  0.13460868  0.29442584  0.17197059    -0.06300
C180        C  0.20576826  0.37065867  0.17252538    -0.06200
C181        C  0.12721987  0.36675160  0.19322591    -0.05500
C182        C  0.13288686  0.29905586  0.19926519    -0.06300
C183        C  0.20097352  0.37399077  0.19969282    -0.06200
C184        C  0.10486178  0.39059670  0.19775751    -0.31600
N185        N  0.09377288  0.39976169  0.17396322     0.14900
C186        C  0.10840698  0.38210810  0.15454212    -0.31600
H187        H  0.10419009  0.38497464  0.13359023     0.16900
C188        C  0.11468826  0.25594324  0.20987549    -0.30500
N189        N  0.09978199  0.22401453  0.19003147     0.13700
C190        C  0.11097059  0.24689069  0.16663779    -0.30500
C191        C  0.24514623  0.39544949  0.21013390    -0.30800
N192        N  0.27640252  0.40628286  0.19007924     0.14200
H193        H  0.25412511  0.40069691  0.23092220     0.16800
C194        C  0.25286034  0.39108210  0.16690967    -0.30800
H195        H  0.26851808  0.39293176  0.14769857     0.16800
H196        H  0.10059716  0.23010506  0.14746879     0.16800
H197        H  0.09809838  0.40136715  0.21677723     0.16900
H198        H  0.11224676  0.24823533  0.23071392     0.16800
C199        C  0.10754823  0.31017081  0.27955957    -0.11200
C200        C  0.14457326  0.34560619  0.29390162     0.11400
C201        C  0.17742323  0.38768203  0.28165099    -0.03000
C202        C  0.17554952  0.38978399  0.25411441    -0.05700
C203        C  0.14187359  0.35127651  0.23940133    -0.16500
C204        C  0.10229896  0.31542216  0.25296109     0.02400
C205        C  0.14535190  0.33841713  0.32208669     0.12400
C206        C  0.21457648  0.42918269  0.29733632     0.63000
H207        H  0.20108126  0.42087750  0.24391174     0.12400
C208        C  0.05329680  0.28441332  0.24176804     0.55100
H209        H  0.08131127  0.27893853  0.28950548     0.08200
C210        C  0.10987381  0.33478342  0.33903144    -0.05600
C211        C  0.11185096  0.32577181  0.36547298    -0.06300
C212        C  0.15194329  0.32913470  0.37599206    -0.15900
C213        C  0.18142242  0.32254096  0.35846490    -0.01500
C214        C  0.17889432  0.32957729  0.33146953    -0.09100
C215        C  0.07145434  0.34244311  0.32985606     0.65200
H216        H  0.08317739  0.31913499  0.37850295     0.10700
C217        C  0.21013457  0.30171977  0.36590322     0.63600
H218        H  0.20214913  0.32669574  0.31749764     0.08000
F219        F  0.02308833  0.29344858  0.25568122    -0.19500
F220        F  0.03816282  0.23814228  0.24517419    -0.15700
F221        F  0.04978158  0.29155324  0.21534009    -0.19200
F222        F  0.24629098  0.41923538  0.30739265    -0.22600
F223        F  0.19404395  0.43962802  0.31806564    -0.24000
F224        F  0.23880241  0.46821975  0.28173514    -0.18000
F225        F  0.19489950  0.26144022  0.35112847    -0.20500
F226        F  0.20583216  0.28987271  0.39224348    -0.21700
F227        F  0.25672131  0.33227054  0.35993278    -0.18800
F228        F  0.04742317  0.34702071  0.35105535    -0.18900
F229        F  0.03943674  0.30535696  0.31457617    -0.22800
F230        F  0.09051357  0.38254789  0.31517819    -0.24400
C231        C  0.11917492  0.33253431  0.03253586    -0.11200
C232        C  0.16020616  0.34119152  0.04446460     0.11400
C233        C  0.19788387  0.34649835  0.02914123    -0.03000
C234        C  0.19288362  0.34323335  0.50189319    -0.05700
C235        C  0.15542240  0.34246248  0.48927928    -0.16500
C236        C  0.11502638  0.33127585  0.00494157     0.02400
C237        C  0.16226798  0.34242407  0.07316953     0.12400
C238        C  0.24320105  0.35536781  0.04118757     0.63000
H239        H  0.21779849  0.33898232  0.49050803     0.12400
C240        C  0.06586874  0.31410964  0.49495089     0.55100
H241        H  0.08961818  0.32548237  0.04502558     0.08200
C242        C  0.17195946  0.38257373  0.08751915    -0.05600
C243        C  0.17732889  0.38270246  0.11476679    -0.06300
C244        C  0.16901313  0.34273288  0.12781873    -0.15900
C245        C  0.17016945  0.30767292  0.11276536    -0.01500
C246        C  0.16134379  0.30542564  0.08573887    -0.09100
C247        C  0.17596908  0.42455523  0.07432960     0.65200
H248        H  0.18559127  0.41330943  0.12633556     0.10700
C249        C  0.19053356  0.27960377  0.12227605     0.63600
H250        H  0.15796921  0.27669113  0.07395504     0.08000
F251        F  0.05416303  0.34678016  0.50107135    -0.19500
F252        F  0.03446253  0.27334491  0.50771487    -0.15700
F253        F  0.05977156  0.30435222  0.46819877    -0.19200
F254        F  0.23599294  0.31551402  0.05281427    -0.22600
F255        F  0.25931276  0.39058577  0.06003928    -0.24000
F256        F  0.27802930  0.36872283  0.02219655    -0.18000
F257        F  0.15832101  0.23262186  0.11949038    -0.20500
F258        F  0.22904002  0.29005432  0.10673099    -0.21700
F259        F  0.20571132  0.28964145  0.14816745    -0.18800
F260        F  0.18596892  0.45970267  0.09247967    -0.18900
F261        F  0.13425701  0.41216089  0.06233400    -0.22800
F262        F  0.21122380  0.44186453  0.05545356    -0.24400
C263        C  0.30982699  0.18573580  0.40477598    -0.11200
C264        C  0.33423583  0.16997608  0.39033386     0.11400
C265        C  0.36214778  0.15621666  0.40263365    -0.03000
C266        C  0.36339976  0.15756597  0.43007137    -0.05700
C267        C  0.33509630  0.16851822  0.44520967    -0.16500
C268        C  0.31022973  0.18665438  0.43224024     0.02400
C269        C  0.33190826  0.17095094  0.36201391     0.12400
C270        C  0.39124885  0.14114694  0.38705599     0.63000
H271        H  0.38901392  0.15321886  0.43938446     0.12400
C272        C  0.28437664  0.20890533  0.44453318     0.55100
H273        H  0.29064539  0.19814902  0.39426083     0.08200
C274        C  0.29463530  0.13450104  0.34804374    -0.05600
C275        C  0.29741112  0.13567550  0.32060850    -0.06300
C276        C  0.33558134  0.17241251  0.30709659    -0.15900
C277        C  0.37552664  0.20571602  0.32194050    -0.01500
C278        C  0.37034704  0.20701416  0.34919557    -0.09100
C279        C  0.25282822  0.09445242  0.36209185     0.65200
H280        H  0.27096452  0.10589144  0.30981551     0.10700
C281        C  0.42571463  0.23707329  0.31202164     0.63600
H282        H  0.39894365  0.23370113  0.36098050     0.08000
F283        F  0.23761781  0.18218746  0.43787747    -0.19500
F284        F  0.30254588  0.25257461  0.43390903    -0.15700
F285        F  0.28695552  0.21476113  0.47161865    -0.19200
F286        F  0.42842914  0.17909766  0.37493007    -0.22600
F287        F  0.36429005  0.10835616  0.36796453    -0.24000
F288        F  0.40898341  0.12158546  0.40330472    -0.18000
F289        F  0.43848698  0.28303238  0.31455185    -0.20500
F290        F  0.43385800  0.22855398  0.28634256    -0.21700
F291        F  0.45514962  0.23052788  0.32766786    -0.18800
F292        F  0.22183021  0.06097910  0.34441456    -0.18900
F293        F  0.22901790  0.11097417  0.37642182    -0.22800
F294        F  0.26760328  0.07334128  0.37918645    -0.24400
C295        C  0.31454381  0.17173701  0.15312739    -0.11200
C296        C  0.33785312  0.15343060  0.13996687     0.11400
C297        C  0.36623494  0.14157411  0.15342568    -0.03000
C298        C  0.36823701  0.14661825  0.18083729    -0.05700
C299        C  0.34053376  0.15983353  0.19483872    -0.16500
C300        C  0.31529753  0.17600888  0.18042630     0.02400
C301        C  0.33735486  0.15499650  0.11161423     0.12400
C302        C  0.39464012  0.12450094  0.13897564     0.63000
H303        H  0.39394069  0.14322377  0.19090973     0.12400
C304        C  0.28972926  0.19987890  0.19080091     0.55100
H305        H  0.29590823  0.18369314  0.14159734     0.08200
C306        C  0.29814805  0.12276625  0.09703932    -0.05600
C307        C  0.29857004  0.13049811  0.07015305    -0.06300
C308        C  0.33626419  0.16951554  0.05773454    -0.15900
C309        C  0.37823138  0.19792348  0.07247063    -0.01500
C310        C  0.37551435  0.19294665  0.09974138    -0.09100
C311        C  0.25657693  0.08031055  0.10965394     0.65200
H312        H  0.27062147  0.10363859  0.05852858     0.10700
C313        C  0.42784185  0.23013084  0.06185335     0.63600
H314        H  0.40501953  0.21720082  0.11189427     0.08000
F315        F  0.24387297  0.17479366  0.18229016    -0.19500
F316        F  0.31101579  0.24378396  0.18005228    -0.15700
F317        F  0.28857531  0.20533750  0.21780794    -0.19200
F318        F  0.42874232  0.15927273  0.12339493    -0.22600
F319        F  0.36569800  0.08665787  0.12304748    -0.24000
F320        F  0.41654519  0.11103742  0.15645415    -0.18000
F321        F  0.44146440  0.27577126  0.06706305    -0.20500
F322        F  0.43376925  0.22472196  0.03526317    -0.21700
F323        F  0.45828245  0.22129158  0.07486976    -0.18800
F324        F  0.22231314  0.05346467  0.09127908    -0.18900
F325        F  0.23645133  0.09366152  0.12912724    -0.22800
F326        F  0.27110671  0.05304746  0.12081352    -0.24400
C327        C  0.33405297  0.17031337  0.52819954     0.30700
C328        C  0.33593244  0.16519990  0.97473902     0.30700
C329        C  0.35668976  0.14443237  0.51640681    -0.05500
C330        C  0.28537801  0.14514765  0.51457445    -0.06300
C331        C  0.35906622  0.21741367  0.51413762    -0.06200
C332        C  0.35754578  0.14099354  0.98897442    -0.05500
C333        C  0.28757316  0.14097712  0.98735820    -0.06300
C334        C  0.36176952  0.21365885  0.98703770    -0.06200
C335        C  0.37464806  0.11222756  0.98339270    -0.31600
N336        N  0.38607872  0.10117346  0.00652211     0.14900
C337        C  0.37505110  0.12020259  0.52682135    -0.31600
H338        H  0.37978239  0.11636449  0.54758400     0.16900
C339        C  0.24328238  0.11615700  0.97781059    -0.30500
N340        N  0.21312668  0.10755854  0.49803094     0.13700
C341        C  0.23803385  0.12545915  0.52072082    -0.30500
C342        C  0.38706649  0.25711677  0.97689847    -0.30800
N343        N  0.39880788  0.28834187  0.49688414     0.14200
H344        H  0.39502826  0.26516283  0.95613150     0.16800
C345        C  0.38110276  0.26471960  0.51990509    -0.30800
H346        H  0.38432418  0.28064589  0.53915758     0.16800
H347        H  0.22284347  0.12448604  0.53995306     0.16800
H348        H  0.37762935  0.09871775  0.96439787     0.16900
H349        H  0.23369406  0.10658028  0.95726263     0.16800
C350        C  0.33526642  0.16889357  0.77751049     0.30700
C351        C  0.34063688  0.15956412  0.72450754     0.30700
C352        C  0.36112877  0.14458883  0.76821238    -0.05500
C353        C  0.28754637  0.14015176  0.76311429    -0.06300
C354        C  0.35868623  0.21450533  0.76207154    -0.06200
C355        C  0.36372377  0.13902680  0.74097243    -0.05500
C356        C  0.29127124  0.13388320  0.73624894    -0.06300
C357        C  0.36391365  0.20918521  0.73540691    -0.06200
C358        C  0.38309084  0.11174858  0.73760027    -0.31600
N359        N  0.39435825  0.10365828  0.76166315     0.14900
C360        C  0.38075538  0.12297257  0.78059934    -0.31600
H361        H  0.38405255  0.12064954  0.80173269     0.16900
C362        C  0.24710728  0.10832013  0.72599667    -0.30500
N363        N  0.21600546  0.10133529  0.74542434     0.13700
C364        C  0.24001988  0.12103575  0.76818930    -0.30500
C365        C  0.38803614  0.25237546  0.72445643    -0.30800
N366        N  0.39594698  0.28437948  0.74349894     0.14200
H367        H  0.39776506  0.25960852  0.70378758     0.16800
C368        C  0.37734660  0.26169320  0.76664501    -0.30800
H369        H  0.37750687  0.27818968  0.78523367     0.16800
H370        H  0.22416018  0.12275843  0.78665991     0.16800
H371        H  0.38713171  0.09650712  0.71955015     0.16900
H372        H  0.23834475  0.09808069  0.70543741     0.16800
C373        C  0.16383240  0.08455192  0.49386748     0.43100
N374        N  0.10378186  0.06492529  0.97011604     0.02000
C375        C  0.38840311  0.02681257  0.00513745    -0.05800
H376        H  0.42445456  0.43711383  0.56387190     0.07500
C377        C  0.44485437  0.35713545  0.96682519    -0.06200
Co378      Co  0.02817840  0.06825857  0.49998444     0.74200
N379        N  0.46987166  0.48284016  0.53288614    -0.25400
Co380      Co  0.42840737  0.46260200  0.99702767     0.74100
C381        C  0.42590557  0.33747823  0.99277362     0.43200
N382        N  0.02875580  0.44646811  0.93039984     0.01600
N383        N  0.43278624  0.40406134  0.99001627     0.01800
N384        N  0.45604760  0.09684087  0.00756361    -0.46200
H385        H  0.13081466  0.09812096  0.53070695     0.07500
N386        N  0.50883659  0.02418349  0.53412430     0.02000
N387        N  0.38811129  0.44598319  0.96233434     0.01800
C388        C  0.33013162  0.43095255  0.93728266     0.43400
N389        N  0.06702137  0.48811496  0.93114411    -0.24800
C390        C  0.04605844  0.15173318  0.96747204    -0.05700
N391        N  0.14597935  0.07149952  0.96941759    -0.45900
N392        N  0.34755201  0.44322279  0.96198512    -0.46200
C393        C  0.06394633  0.17157627  0.94148789     0.43200
N394        N  0.46388373  0.06268697  0.00386223     0.02000
N395        N  0.02114288  0.02570917  0.90043025    -0.24800
N396        N  0.09208640  0.07266316  0.99402387    -0.25300
N397        N  0.48300233  0.48381453  0.89918019     0.01700
H398        H  0.06624933  0.07187559  0.86952884     0.07600
H399        H  0.36281095  0.41447514  0.90138855     0.07600
N400        N  0.42513298  0.02162327  0.00240276    -0.25400
N401        N  0.44674338  0.39739327  0.96655775    -0.25000
N402        N  0.05700134  0.10479586  0.94339546     0.02000
C403        C  0.49323396  0.50357727  0.57628209     0.43400
C404        C  0.10449697  0.48386380  0.92946730    -0.06300
N405        N  0.39972730  0.43687527  0.93877225    -0.25000
H406        H  0.45188453  0.34162622  0.94988094     0.07600
N407        N  0.02316759  0.03763647  0.55921328    -0.46200
H408        H  0.14067279  0.51186786  0.93015449     0.07600
C409        C  0.49861834  0.00436679  0.85708002     0.43300
C410        C  0.12849212  0.08616983  0.51043260    -0.05800
Co411      Co  0.06256093  0.04681790  0.93608477     0.73800
N412        N  0.03777724  0.41278996  0.92831334    -0.45900
C413        C  0.40928334  0.07645496  0.00924031     0.43500
N414        N  0.07030836  0.14065700  0.92756960    -0.45900
Co415      Co  0.46360503  0.44032937  0.93354496     0.73900
C416        C  0.36465794  0.42599688  0.92172522    -0.06300
C417        C  0.45759029  0.46722255  0.55824665    -0.05800
N418        N  0.04404525  0.11138678  0.96720094    -0.25400
N419        N  0.41892265  0.36842307  0.50611909    -0.46100
H420        H  0.35197819  0.99942683  0.00437805     0.07500
C421        C  0.03342388  0.04132935  0.87509923    -0.06200
Cl422      Cl  0.49571160  0.00443247  0.96668220    -0.49200
C423        C  0.08479904  0.43414853  0.92721200     0.43300
H424        H  0.04020444  0.16740292  0.98479000     0.07500
N425        N  0.46908114  0.46998900  0.87408516    -0.45900
C426        C  0.16682034  0.08007095  0.74090167     0.43100
N427        N  0.10575825  0.06125816  0.71816302     0.02000
C428        C  0.39501761  0.02889019  0.76133604    -0.05800
H429        H  0.42953013  0.43508147  0.81408824     0.07500
C430        C  0.43661301  0.35371236  0.71270265    -0.06200
Co431      Co  0.03311842  0.06679752  0.75060181     0.74200
N432        N  0.47499464  0.48038138  0.78305251    -0.25400
Co433      Co  0.43097541  0.46218806  0.74868708     0.74100
C434        C  0.42018515  0.33338831  0.73870468     0.43200
N435        N  0.02141214  0.44415120  0.67698929     0.01600
N436        N  0.43212329  0.40224739  0.73920381     0.01800
N437        N  0.46340024  0.09786833  0.76225094    -0.46200
H438        H  0.13539458  0.09261732  0.77874383     0.07500
N439        N  0.51425079  0.02150767  0.78417804     0.02000
N440        N  0.38715219  0.44680408  0.71595934     0.00200
C441        C  0.32564525  0.42806697  0.69398035     0.43400
N442        N  0.06140748  0.48425509  0.67802301    -0.24800
C443        C  0.05579073  0.15433545  0.72033287    -0.05700
N444        N  0.14815253  0.06795964  0.71648326    -0.45900
N445        N  0.34481221  0.43990582  0.71820031    -0.46200
C446        C  0.07304319  0.17476202  0.69436556     0.43200
N447        N  0.46993078  0.06322448  0.75682760     0.02000
N448        N  0.01807296  0.02735363  0.65044544    -0.24800
N449        N  0.09532750  0.06857418  0.74254937    -0.25300
N450        N  0.47825236  0.48670602  0.64939239     0.01700
H451        H  0.06369776  0.07217184  0.61926792     0.07600
H452        H  0.35606463  0.41588535  0.65555200     0.07600
N453        N  0.43054370  0.02259201  0.75618096    -0.25400
N454        N  0.44247060  0.39579089  0.71464850    -0.25000
N455        N  0.06078282  0.10564374  0.69426876     0.02000
C456        C  0.49904544  0.50052002  0.82626446     0.43400
C457        C  0.09628019  0.47646816  0.67414154    -0.06300
N458        N  0.39717819  0.44002429  0.69136535    -0.25000
H459        H  0.43974321  0.33805968  0.69453774     0.07600
N460        N  0.02897755  0.03462910  0.80923551    -0.46200
H461        H  0.13322178  0.50232799  0.67489619     0.07600
C462        C  0.99344907  0.00741233  0.60719883     0.43300
C463        C  0.13218937  0.08113992  0.75831168    -0.05800
Co464      Co  0.06193909  0.04546289  0.68509413     0.73800
N465        N  0.02667634  0.40849760  0.67260178    -0.45900
C466        C  0.41698755  0.07868079  0.76612505     0.43500
N467        N  0.07595405  0.14285384  0.67921656    -0.45900
Co468      Co  0.45897972  0.44140730  0.68298931     0.73900
C469        C  0.35991590  0.42750594  0.67598580    -0.06300
C470        C  0.46306907  0.46452339  0.80835064    -0.05800
N471        N  0.04970920  0.11213997  0.71865423    -0.25400
N472        N  0.41744153  0.36504672  0.75417539    -0.46100
H473        H  0.35832998  0.00211652  0.76128961     0.07500
C474        C  0.03002121  0.04301806  0.62508320    -0.06200
Cl475      Cl  0.49630151  0.00405302  0.71682452    -0.49200
C476        C  0.07290150  0.42638153  0.66979132     0.43300
H477        H  0.05270217  0.17019985  0.73840947     0.07500
N478        N  0.46322584  0.47369413  0.62435205    -0.45900
C479        C  0.15806103  0.33709866  0.90553383     0.30700
C480        C  0.15756059  0.34440255  0.95929861     0.30700
C481        C  0.13821565  0.36640414  0.91747647    -0.05500
C482        C  0.13103413  0.29130560  0.92045218    -0.06300
C483        C  0.20727201  0.36247996  0.91833446    -0.06200
C484        C  0.13808835  0.36993656  0.94495085    -0.05500
C485        C  0.13163211  0.29564243  0.94756732    -0.06300
C486        C  0.20608453  0.36639947  0.94586052    -0.06200
C487        C  0.12088822  0.39798766  0.95169441    -0.31600
N488        N  0.10967033  0.41067074  0.92906405     0.14900
C489        C  0.12128253  0.39303771  0.90815662    -0.31600
H490        H  0.11732295  0.39929663  0.88771714     0.16900
C491        C  0.10751368  0.25210990  0.95789318    -0.30500
N492        N  0.09163205  0.22073449  0.93769123     0.13700
C493        C  0.10593134  0.24414762  0.91448644    -0.30500
C494        C  0.25087597  0.39623861  0.95401921    -0.30800
N495        N  0.28044741  0.40663965  0.93331073     0.14200
H496        H  0.26170570  0.40996804  0.97390210     0.16800
C497        C  0.25448506  0.38775945  0.91097843    -0.30800
H498        H  0.26876468  0.39341792  0.89114214     0.16800
H499        H  0.09869944  0.22822967  0.89494430     0.16800
H500        H  0.11633571  0.40802328  0.97144851     0.16900
H501        H  0.10223282  0.24402420  0.97876903     0.16800
C502        C  0.16001346  0.34119841  0.65717379     0.30700
C503        C  0.15050937  0.34816373  0.71028806     0.30700
C504        C  0.13074987  0.36232010  0.66614774    -0.05500
C505        C  0.13460903  0.29442591  0.67197091    -0.06300
C506        C  0.20576847  0.37065883  0.67252547    -0.06200
C507        C  0.12722003  0.36675166  0.69322601    -0.05500
C508        C  0.13288737  0.29905613  0.69926550    -0.06300
C509        C  0.20097381  0.37399121  0.69969290    -0.06200
C510        C  0.10486206  0.39059690  0.69775753    -0.31600
N511        N  0.09377307  0.39976172  0.67396322     0.14900
C512        C  0.10840709  0.38210795  0.65454216    -0.31600
H513        H  0.10419024  0.38497442  0.63359029     0.16900
C514        C  0.11468874  0.25594352  0.70987588    -0.30500
N515        N  0.09978231  0.22401472  0.69003192     0.13700
C516        C  0.11097066  0.24689072  0.66663820    -0.30500
C517        C  0.24514657  0.39545012  0.71013398    -0.30800
N518        N  0.27640281  0.40628328  0.69007927     0.14200
H519        H  0.25412538  0.40069766  0.73092202     0.16800
C520        C  0.25286057  0.39108225  0.66690976    -0.30800
H521        H  0.26851831  0.39293164  0.64769862     0.16800
H522        H  0.10059671  0.23010509  0.64746940     0.16800
H523        H  0.09809885  0.40136761  0.71677724     0.16900
H524        H  0.11224725  0.24823569  0.73071435     0.16800
C525        C  0.10754889  0.31017101  0.77955969    -0.11200
C526        C  0.14457394  0.34560631  0.79390177     0.11400
C527        C  0.17742366  0.38768232  0.78165125    -0.03000
C528        C  0.17554996  0.38978448  0.75411464    -0.05700
C529        C  0.14187397  0.35127699  0.73940152    -0.16500
C530        C  0.10229944  0.31542259  0.75296127     0.02400
C531        C  0.14535262  0.33841703  0.82208680     0.12400
C532        C  0.21457670  0.42918305  0.79733667     0.63000
H533        H  0.20108137  0.42087770  0.74391212     0.12400
C534        C  0.05329724  0.28441376  0.74176826     0.55100
H535        H  0.08131211  0.27893861  0.78950551     0.08200
C536        C  0.10987428  0.33478282  0.83903157    -0.05600
C537        C  0.11185153  0.32577121  0.86547309    -0.06300
C538        C  0.15194410  0.32913465  0.87599216    -0.15900
C539        C  0.18142361  0.32254143  0.85846499    -0.01500
C540        C  0.17889539  0.32957771  0.83146964    -0.09100
C541        C  0.07145460  0.34244223  0.82985625     0.65200
H542        H  0.08317787  0.31913420  0.87850312     0.10700
C543        C  0.21013623  0.30172077  0.86590332     0.63600
H544        H  0.20215066  0.32669655  0.81749762     0.08000
F545        F  0.02308884  0.29344916  0.75568141    -0.19500
F546        F  0.03816318  0.23814273  0.74517449    -0.15700
F547        F  0.04978195  0.29155349  0.71534029    -0.19200
F548        F  0.24629191  0.41923632  0.80739258    -0.22600
F549        F  0.19404405  0.43962752  0.81806632    -0.24000
F550        F  0.23880183  0.46822046  0.78173569    -0.18000
F551        F  0.19490196  0.26144156  0.85112839    -0.20500
F552        F  0.20583354  0.28987328  0.89224353    -0.21700
F553        F  0.25672294  0.33227212  0.85993313    -0.18800
F554        F  0.04742339  0.34701966  0.85105558    -0.18900
F555        F  0.03943708  0.30535603  0.81457638    -0.22800
F556        F  0.09051359  0.38254701  0.81517841    -0.24400
C557        C  0.11917423  0.33253368  0.53253591    -0.11200
C558        C  0.16020543  0.34119069  0.54446464     0.11400
C559        C  0.19788306  0.34649742  0.52914125    -0.03000
C560        C  0.19288437  0.34323406  0.00189319    -0.05700
C561        C  0.15542311  0.34246307  0.98927927    -0.16500
C562        C  0.11502569  0.33127526  0.50494160     0.02400
C563        C  0.16226737  0.34242331  0.57316960     0.12400
C564        C  0.24320008  0.35536644  0.54118757     0.63000
H565        H  0.21779935  0.33898304  0.99050804     0.12400
C566        C  0.06586945  0.31411033  0.99495090     0.55100
H567        H  0.08961759  0.32548185  0.54502562     0.08200
C568        C  0.17195949  0.38257323  0.58751918    -0.05600
C569        C  0.17732899  0.38270203  0.61476683    -0.06300
C570        C  0.16901303  0.34273244  0.62781883    -0.15900
C571        C  0.17016871  0.30767210  0.61276546    -0.01500
C572        C  0.16134281  0.30542474  0.58573899    -0.09100
C573        C  0.17596973  0.42455494  0.57432954     0.65200
H574        H  0.18559161  0.41330910  0.62633556     0.10700
C575        C  0.19053249  0.27960261  0.62227609     0.63600
H576        H  0.15796783  0.27668992  0.57395513     0.08000
F577        F  0.05416372  0.34678074  0.00107162    -0.19500
F578        F  0.03446329  0.27334541  0.00771473    -0.15700
F579        F  0.05977228  0.30435330  0.96819875    -0.19200
F580        F  0.23599160  0.31551242  0.55281414    -0.22600
F581        F  0.25931204  0.39058425  0.56003940    -0.24000
F582        F  0.27802833  0.36872137  0.52219656    -0.18000
F583        F  0.15831933  0.23262075  0.61949096    -0.20500
F584        F  0.22903820  0.29005206  0.60673061    -0.21700
F585        F  0.20571126  0.28964099  0.64816730    -0.18800
F586        F  0.18596998  0.45970256  0.59247956    -0.18900
F587        F  0.13425782  0.41216102  0.56233388    -0.22800
F588        F  0.21122448  0.44186380  0.55545351    -0.24400
C589        C  0.30982747  0.18573615  0.90477609    -0.11200
C590        C  0.33423600  0.16997630  0.89033378     0.11400
C591        C  0.36214725  0.15621584  0.90263330    -0.03000
C592        C  0.36339938  0.15756473  0.93007103    -0.05700
C593        C  0.33509650  0.16851754  0.94520953    -0.16500
C594        C  0.31022997  0.18665398  0.93224034     0.02400
C595        C  0.33190825  0.17095142  0.86201390     0.12400
C596        C  0.39124746  0.14114534  0.88705537     0.63000
H597        H  0.38901276  0.15321690  0.93938375     0.12400
C598        C  0.28437647  0.20890439  0.94453349     0.55100
H599        H  0.29064615  0.19814979  0.89426110     0.08200
C600        C  0.29463524  0.13450157  0.84804378    -0.05600
C601        C  0.29741133  0.13567563  0.82060855    -0.06300
C602        C  0.33558168  0.17241252  0.80709663    -0.15900
C603        C  0.37552693  0.20571610  0.82194051    -0.01500
C604        C  0.37034726  0.20701441  0.84919557    -0.09100
C605        C  0.25282770  0.09445342  0.86209191     0.65200
H606        H  0.27096502  0.10589161  0.80981570     0.10700
C607        C  0.42571497  0.23707321  0.81202168     0.63600
H608        H  0.39894391  0.23370119  0.86098049     0.08000
F609        F  0.23761781  0.18218664  0.93787740    -0.19500
F610        F  0.30254582  0.25257405  0.93390986    -0.15700
F611        F  0.28695461  0.21475924  0.97161902    -0.19200
F612        F  0.42842826  0.17909581  0.87492959    -0.22600
F613        F  0.36428811  0.10835525  0.86796375    -0.24000
F614        F  0.40898117  0.12158267  0.90330380    -0.18000
F615        F  0.43848743  0.28303236  0.81455177    -0.20500
F616        F  0.43385834  0.22855373  0.78634264    -0.21700
F617        F  0.45514984  0.23052781  0.82766800    -0.18800
F618        F  0.22182981  0.06097989  0.84441467    -0.18900
F619        F  0.22901747  0.11097586  0.87642134    -0.22800
F620        F  0.26760209  0.07334234  0.87918701    -0.24400
C621        C  0.31454291  0.17173586  0.65312756    -0.11200
C622        C  0.33785213  0.15342939  0.63996697     0.11400
C623        C  0.36623403  0.14157291  0.65342572    -0.03000
C624        C  0.36823641  0.14661729  0.68083730    -0.05700
C625        C  0.34053353  0.15983289  0.69483881    -0.16500
C626        C  0.31529703  0.17600802  0.68042645     0.02400
C627        C  0.33735398  0.15499556  0.61161435     0.12400
C628        C  0.39463909  0.12449967  0.63897561     0.63000
H629        H  0.39394037  0.14322273  0.69090977     0.12400
C630        C  0.28972892  0.19987817  0.69080113     0.55100
H631        H  0.29590721  0.18369192  0.64159755     0.08200
C632        C  0.29814735  0.12276538  0.59703929    -0.05600
C633        C  0.29856943  0.13049774  0.57015308    -0.06300
C634        C  0.33626363  0.16951536  0.55773473    -0.15900
C635        C  0.37823076  0.19792299  0.57247093    -0.01500
C636        C  0.37551349  0.19294596  0.59974167    -0.09100
C637        C  0.25657645  0.08030921  0.60965370     0.65200
H638        H  0.27062077  0.10363829  0.55852841     0.10700
C639        C  0.42784141  0.23012991  0.56185378     0.63600
H640        H  0.40501844  0.21719993  0.61189460     0.08000
F641        F  0.24387258  0.17479299  0.68229049    -0.19500
F642        F  0.31101547  0.24378320  0.68005247    -0.15700
F643        F  0.28857515  0.20533685  0.71780816    -0.19200
F644        F  0.42874131  0.15927147  0.62339490    -0.22600
F645        F  0.36569688  0.08665665  0.62304745    -0.24000
F646        F  0.41654412  0.11103604  0.65645408    -0.18000
F647        F  0.44146441  0.27577050  0.56706328    -0.20500
F648        F  0.43376888  0.22472065  0.53526366    -0.21700
F649        F  0.45828160  0.22129036  0.57487041    -0.18800
F650        F  0.22231265  0.05346371  0.59127876    -0.18900
F651        F  0.23645075  0.09365944  0.62912734    -0.22800
F652        F  0.27110651  0.05304599  0.62081280    -0.24400
C653        C  0.33405343  0.67031311  0.02819928     0.30700
C654        C  0.33593184  0.66520058  0.47473909     0.30700
C655        C  0.35669110  0.64443285  0.01640669    -0.05500
C656        C  0.28537850  0.64514651  0.01457418    -0.06300
C657        C  0.35906590  0.71741330  0.01413731    -0.06200
C658        C  0.35754442  0.64099337  0.48897432    -0.05500
C659        C  0.28757257  0.64097844  0.48735826    -0.06300
C660        C  0.36176947  0.71365938  0.48703789    -0.06200
C661        C  0.37464624  0.61222712  0.48339240    -0.31600
N662        N  0.38607675  0.60117248  0.50652163     0.14900
C663        C  0.37505271  0.62020343  0.02682137    -0.31600
H664        H  0.37978370  0.61636526  0.04758402     0.16900
C665        C  0.24328179  0.61615853  0.47781069    -0.30500
N666        N  0.21312724  0.60755721  0.99803060     0.13700
C667        C  0.23803435  0.62545807  0.02072049    -0.30500
C668        C  0.38706659  0.75711732  0.47689880    -0.30800
N669        N  0.39880706  0.78834148  0.99688382     0.14200
H670        H  0.39502817  0.76516356  0.45613156     0.16800
C671        C  0.38110202  0.76471919  0.01990475    -0.30800
H672        H  0.38432346  0.78064549  0.03915730     0.16800
H673        H  0.22284394  0.62448542  0.03995267     0.16800
H674        H  0.37762757  0.59871753  0.46439712     0.16900
H675        H  0.23369341  0.60658176  0.45726279     0.16800
C676        C  0.33526635  0.66889382  0.27751032     0.30700
C677        C  0.34063680  0.65956457  0.22450735     0.30700
C678        C  0.36112859  0.64458900  0.26821213    -0.05500
C679        C  0.28754629  0.64015221  0.26311412    -0.06300
C680        C  0.35868622  0.71450562  0.26207142    -0.06200
C681        C  0.36372354  0.63902703  0.24097217    -0.05500
C682        C  0.29127116  0.63388375  0.23624872    -0.06300
C683        C  0.36391365  0.70918558  0.23540678    -0.06200
C684        C  0.38309049  0.61174872  0.23759995    -0.31600
N685        N  0.39435792  0.60365835  0.26166280     0.14900
C686        C  0.38075517  0.62297268  0.28059903    -0.31600
H687        H  0.38405243  0.62064964  0.30173239     0.16900
C688        C  0.24710724  0.60832088  0.22599644    -0.30500
N689        N  0.21600544  0.60133606  0.24542414     0.13700
C690        C  0.24001985  0.62103634  0.26818910    -0.30500
C691        C  0.38803616  0.75237582  0.22445637    -0.30800
N692        N  0.39594699  0.78437976  0.24349883     0.14200
H693        H  0.39776518  0.75960902  0.20378722     0.16800
C694        C  0.37734658  0.76169348  0.26664497    -0.30800
H695        H  0.37750683  0.77818973  0.28523339     0.16800
H696        H  0.22416005  0.62275893  0.28665989     0.16800
H697        H  0.38713131  0.59650723  0.21954971     0.16900
H698        H  0.23834469  0.59808151  0.20543714     0.16800
C699        C  0.16383303  0.58455107  0.99386709     0.43100
N700        N  0.10378123  0.56492552  0.47011627     0.02000
C701        C  0.38840177  0.52681182  0.50513707    -0.05800
H702        H  0.42445463  0.93711388  0.06387169     0.07500
C703        C  0.44485468  0.85713585  0.46682560    -0.06200
Co704      Co  0.02817937  0.56825834  0.99998441     0.74200
N705        N  0.46987219  0.98283997  0.03288601    -0.25400
Co706      Co  0.42840685  0.96260197  0.49702780     0.74100
C707        C  0.42590599  0.83747869  0.49277406     0.43200
N708        N  0.02875561  0.94646829  0.43040016     0.01600
N709        N  0.43278611  0.90406155  0.49001654     0.01800
N710        N  0.45604604  0.59684046  0.50756303    -0.46200
H711        H  0.13081546  0.59811979  0.03070671     0.07500
N712        N  0.50883730  0.52418303  0.03412414     0.02000
N713        N  0.38811080  0.94598281  0.46233441     0.01800
C714        C  0.33013088  0.93095144  0.43728274     0.43400
N715        N  0.06702117  0.98811517  0.43114451    -0.24800
C716        C  0.04605710  0.65173289  0.46747171    -0.05700
N717        N  0.14597869  0.57149975  0.46941794    -0.45900
N718        N  0.34755131  0.94322193  0.46198518    -0.46200
C719        C  0.06394526  0.67157600  0.44148761     0.43200
N720        N  0.46388250  0.56268667  0.50386202     0.02000
N721        N  0.02114275  0.52570920  0.40043027    -0.24800
N722        N  0.09208572  0.57266368  0.49402403    -0.25300
N723        N  0.48300221  0.98381436  0.39918022     0.01700
H724        H  0.06624936  0.57187573  0.36952892     0.07600
H725        H  0.36281042  0.91447412  0.40138866     0.07600
N726        N  0.42513196  0.52162286  0.50240267    -0.25400
N727        N  0.44674328  0.89739345  0.46655803    -0.25000
N728        N  0.05700068  0.60479579  0.44339541     0.02000
C729        C  0.49323429  0.00357686  0.07628197     0.43400
C730        C  0.10449677  0.98386401  0.42946784    -0.06300
N731        N  0.39972693  0.93687496  0.43877232    -0.25000
H732        H  0.45188499  0.84162663  0.44988139     0.07600
N733        N  0.02316816  0.53763588  0.05921317    -0.46200
H734        H  0.14067274  0.01186821  0.43015508     0.07600
C735        C  0.49861834  0.50436670  0.35707995     0.43300
C736        C  0.12849284  0.58616889  0.01043236    -0.05800
Co737      Co  0.06256054  0.54681799  0.43608490     0.73800
N738        N  0.03777705  0.91279016  0.42831372    -0.45900
C739        C  0.40928176  0.57645427  0.50923959     0.43500
N740        N  0.07030763  0.64065678  0.42756948    -0.45900
Co741      Co  0.46360480  0.94032933  0.43354513     0.73900
C742        C  0.36465741  0.92599609  0.42172531    -0.06300
C743        C  0.45759056  0.96722234  0.05824650    -0.05800
N744        N  0.04404425  0.61138671  0.46720083    -0.25400
N745        N  0.41892224  0.86842280  0.00611888    -0.46100
H746        H  0.35197731  0.49942619  0.50437764     0.07500
C747        C  0.03342387  0.54132941  0.37509926    -0.06200
Cl748      Cl  0.49571102  0.50443240  0.46668224    -0.49200
C749        C  0.08479885  0.93414874  0.42721255     0.43300
H750        H  0.04020276  0.66740276  0.48478972     0.07500
N751        N  0.46908120  0.96998881  0.37408516    -0.45900
C752        C  0.16682033  0.58007166  0.24090146     0.43100
N753        N  0.10575809  0.56125837  0.21816286     0.02000
C754        C  0.39501731  0.52889026  0.26133579    -0.05800
H755        H  0.42953010  0.93508117  0.31408818     0.07500
C756        C  0.43661284  0.85371254  0.21270259    -0.06200
Co757      Co  0.03311818  0.56679764  0.25060159     0.74200
N758        N  0.47499447  0.98038145  0.28305244    -0.25400
Co759      Co  0.43097518  0.96218814  0.24868700     0.74100
C760        C  0.42018503  0.83338855  0.23870463     0.43200
N761        N  0.02141182  0.94415103  0.17698921     0.01600
N762        N  0.43212307  0.90224754  0.23920373     0.01800
N763        N  0.46339993  0.59786844  0.26225054    -0.46200
H764        H  0.13539446  0.59261793  0.27874355     0.07500
N765        N  0.51425057  0.52150787  0.28417792     0.02000
N766        N  0.38715197  0.94680412  0.21595925     0.00200
C767        C  0.32564502  0.92806693  0.19398029     0.43400
N768        N  0.06140716  0.98425491  0.17802291    -0.24800
C769        C  0.05579044  0.65433540  0.22033246    -0.05700
N770        N  0.14815248  0.56796017  0.21648308    -0.45900
N771        N  0.34481195  0.93990577  0.21820025    -0.46200
C772        C  0.07304300  0.67476202  0.19436519     0.43200
N773        N  0.46993048  0.56322456  0.25682731     0.02000
N774        N  0.01807288  0.52735348  0.15044528    -0.24800
N775        N  0.09532729  0.56857437  0.24254920    -0.25300
N776        N  0.47825213  0.98670585  0.14939223     0.01700
H777        H  0.06369783  0.57217144  0.11926776     0.07600
H778        H  0.35606442  0.91588544  0.15555203     0.07600
N779        N  0.43054341  0.52259208  0.25618076    -0.25400
N780        N  0.44247036  0.89579102  0.21464841    -0.25000
N781        N  0.06078262  0.60564373  0.19426845     0.02000
C782        C  0.49904549  0.00051993  0.32626440     0.43400
C783        C  0.09627987  0.97646797  0.17414150    -0.06300
N784        N  0.39717798  0.94002437  0.19136527    -0.25000
H785        H  0.43974309  0.83805986  0.19453768     0.07600
N786        N  0.02897751  0.53462925  0.30923540    -0.46200
H787        H  0.13322139  0.00232773  0.17489612     0.07600
C788        C  0.99344920  0.50741195  0.10719867     0.43300
C789        C  0.13218926  0.58114041  0.25831151    -0.05800
Co790      Co  0.06193893  0.54546289  0.18509399     0.73800
N791        N  0.02667598  0.90849739  0.17260180    -0.45900
C792        C  0.41698726  0.57868090  0.26612467     0.43500
N793        N  0.07595390  0.64285377  0.17921624    -0.45900
Co794      Co  0.45897947  0.94140728  0.18298920     0.73900
C795        C  0.35991567  0.92750596  0.17598570    -0.06300
C796        C  0.46306907  0.96452336  0.30835056    -0.05800
N797        N  0.04970891  0.61214000  0.21865394    -0.25400
N798        N  0.41744136  0.86504691  0.25417532    -0.46100
H799        H  0.35832968  0.50211657  0.26128943     0.07500
C800        C  0.03002127  0.54301777  0.12508303    -0.06200
Cl801      Cl  0.49630125  0.50405301  0.21682436    -0.49200
C802        C  0.07290113  0.92638132  0.16979135     0.43300
H803        H  0.05270179  0.67020008  0.23840935     0.07500
N804        N  0.46322575  0.97369386  0.12435189    -0.45900
C805        C  0.15806018  0.83709856  0.40553389     0.30700
C806        C  0.15755980  0.84440203  0.45929872     0.30700
C807        C  0.13821490  0.86640399  0.41747670    -0.05500
C808        C  0.13103328  0.79130540  0.42045214    -0.06300
C809        C  0.20727118  0.86247965  0.41833450    -0.06200
C810        C  0.13808755  0.86993614  0.44495109    -0.05500
C811        C  0.13163133  0.79564204  0.44756729    -0.06300
C812        C  0.20608373  0.86639898  0.44586059    -0.06200
C813        C  0.12088766  0.89798738  0.45169478    -0.31600
N814        N  0.10967003  0.91067087  0.42906447     0.14900
C815        C  0.12128210  0.89303789  0.40815696    -0.31600
H816        H  0.11732268  0.89929712  0.38771755     0.16900
C817        C  0.10751292  0.75210945  0.45789308    -0.30500
N818        N  0.09163122  0.72073419  0.43769101     0.13700
C819        C  0.10593050  0.74414746  0.41448629    -0.30500
C820        C  0.25087525  0.89623758  0.45401929    -0.30800
N821        N  0.28044666  0.90663853  0.43331081     0.14200
H822        H  0.26170509  0.90996678  0.47390227     0.16800
C823        C  0.25448426  0.88775868  0.41097848    -0.30800
H824        H  0.26876385  0.89341698  0.39114220     0.16800
H825        H  0.09869856  0.72822961  0.39494409     0.16800
H826        H  0.11633529  0.90802294  0.47144884     0.16900
H827        H  0.10223211  0.74402369  0.47876870     0.16800
C828        C  0.16001336  0.84119861  0.15717371     0.30700
C829        C  0.15050911  0.84816358  0.21028795     0.30700
C830        C  0.13074973  0.86232021  0.16614769    -0.05500
C831        C  0.13460885  0.79442597  0.17197068    -0.06300
C832        C  0.20576831  0.87065889  0.17252541    -0.06200
C833        C  0.12721985  0.86675164  0.19322596    -0.05500
C834        C  0.13288706  0.79905603  0.19926530    -0.06300
C835        C  0.20097359  0.87399107  0.19969285    -0.06200
C836        C  0.10486173  0.89059673  0.19775754    -0.31600
N837        N  0.09377269  0.89976154  0.17396323     0.14900
C838        C  0.10840677  0.88210790  0.15454215    -0.31600
H839        H  0.10418979  0.88497431  0.13359025     0.16900
C840        C  0.11468852  0.75594342  0.20987557    -0.30500
N841        N  0.09978224  0.72401469  0.19003157     0.13700
C842        C  0.11097080  0.74689085  0.16663789    -0.30500
C843        C  0.24514632  0.89544990  0.21013391    -0.30800
N844        N  0.27640258  0.90628321  0.19007924     0.14200
H845        H  0.25412523  0.90069742  0.23092223     0.16800
C846        C  0.25286039  0.89108235  0.16690969    -0.30800
H847        H  0.26851811  0.89293191  0.14769859     0.16800
H848        H  0.10059728  0.73010519  0.14746888     0.16800
H849        H  0.09809844  0.90136731  0.21677723     0.16900
H850        H  0.11224702  0.74823543  0.23071417     0.16800
C851        C  0.10754863  0.81017139  0.27955975    -0.11200
C852        C  0.14457348  0.84560707  0.29390176     0.11400
C853        C  0.17742318  0.88768290  0.28165107    -0.03000
C854        C  0.17554960  0.88978457  0.25411444    -0.05700
C855        C  0.14187379  0.85127683  0.23940143    -0.16500
C856        C  0.10229930  0.81542248  0.25296123     0.02400
C857        C  0.14535221  0.83841811  0.32208684     0.12400
C858        C  0.21457602  0.92918397  0.29733636     0.63000
H859        H  0.20108104  0.92087778  0.24391178     0.12400
C860        C  0.05329714  0.78441347  0.24176823     0.55100
H861        H  0.08131187  0.77893917  0.28950568     0.08200
C862        C  0.10987390  0.83478393  0.33903157    -0.05600
C863        C  0.11185093  0.82577205  0.36547309    -0.06300
C864        C  0.15194327  0.82913494  0.37599217    -0.15900
C865        C  0.18142261  0.82254162  0.35846498    -0.01500
C866        C  0.17889475  0.82957839  0.33146965    -0.09100
C867        C  0.07145422  0.84244332  0.32985621     0.65200
H868        H  0.08317731  0.81913504  0.37850304     0.10700
C869        C  0.21013446  0.80172004  0.36590313     0.63600
H870        H  0.20214962  0.82669710  0.31749778     0.08000
F871        F  0.02308859  0.79344860  0.25568142    -0.19500
F872        F  0.03816333  0.73814249  0.24517441    -0.15700
F873        F  0.04978180  0.79155329  0.21534028    -0.19200
F874        F  0.24629099  0.91923740  0.30739283    -0.22600
F875        F  0.19404306  0.93962897  0.31806559    -0.24000
F876        F  0.23880148  0.96822098  0.28173509    -0.18000
F877        F  0.19489914  0.76144060  0.35112824    -0.20500
F878        F  0.20583193  0.78987264  0.39224334    -0.21700
F879        F  0.25672126  0.83227062  0.35993275    -0.18800
F880        F  0.04742305  0.84702088  0.35105551    -0.18900
F881        F  0.03943670  0.80535702  0.31457638    -0.22800
F882        F  0.09051318  0.88254801  0.31517828    -0.24400
C883        C  0.11917484  0.83253427  0.03253593    -0.11200
C884        C  0.16020615  0.84119154  0.04446466     0.11400
C885        C  0.19788380  0.84649830  0.02914128    -0.03000
C886        C  0.19288345  0.84323308  0.50189328    -0.05700
C887        C  0.15542231  0.84246241  0.48927940    -0.16500
C888        C  0.11502630  0.83127581  0.00494163     0.02400
C889        C  0.16226798  0.84242412  0.07316960     0.12400
C890        C  0.24320099  0.85536776  0.04118761     0.63000
H891        H  0.21779814  0.83898181  0.49050810     0.12400
C892        C  0.06586875  0.81410988  0.49495111     0.55100
H893        H  0.08961831  0.82548233  0.04502558     0.08200
C894        C  0.17195931  0.88257373  0.08751922    -0.05600
C895        C  0.17732879  0.88270247  0.11476685    -0.06300
C896        C  0.16901314  0.84273293  0.12781879    -0.15900
C897        C  0.17016951  0.80767300  0.11276543    -0.01500
C898        C  0.16134388  0.80542574  0.08573894    -0.09100
C899        C  0.17596865  0.92455512  0.07432968     0.65200
H900        H  0.18559108  0.91330942  0.12633563     0.10700
C901        C  0.19053361  0.77960380  0.12227611     0.63600
H902        H  0.15796932  0.77669123  0.07395510     0.08000
F903        F  0.05416312  0.84678048  0.50107145    -0.19500
F904        F  0.03446259  0.77334531  0.50771524    -0.15700
F905        F  0.05977143  0.80435218  0.46819902    -0.19200
F906        F  0.23599286  0.81551403  0.05281440    -0.22600
F907        F  0.25931285  0.89058587  0.06003924    -0.24000
F908        F  0.27802915  0.86872255  0.02219655    -0.18000
F909        F  0.15832100  0.73262189  0.11949048    -0.20500
F910        F  0.22904001  0.79005427  0.10673101    -0.21700
F911        F  0.20571147  0.78964152  0.14816750    -0.18800
F912        F  0.18596821  0.95970246  0.09247976    -0.18900
F913        F  0.13425655  0.91216057  0.06233405    -0.22800
F914        F  0.21122341  0.94186469  0.05545367    -0.24400
C915        C  0.30982718  0.68573581  0.40477579    -0.11200
C916        C  0.33423634  0.66997631  0.39033375     0.11400
C917        C  0.36214843  0.65621719  0.40263360    -0.03000
C918        C  0.36340023  0.65756646  0.43007134    -0.05700
C919        C  0.33509639  0.66851836  0.44520955    -0.16500
C920        C  0.31022976  0.68665434  0.43224006     0.02400
C921        C  0.33190877  0.67095103  0.36201380     0.12400
C922        C  0.39124981  0.64114770  0.38705605     0.63000
H923        H  0.38901438  0.65321969  0.43938443     0.12400
C924        C  0.28437648  0.70890516  0.44453293     0.55100
H925        H  0.29064567  0.69814877  0.39426066     0.08200
C926        C  0.29463580  0.63450110  0.34804364    -0.05600
C927        C  0.29741154  0.63567555  0.32060841    -0.06300
C928        C  0.33558170  0.67241259  0.30709648    -0.15900
C929        C  0.37552704  0.70571607  0.32194036    -0.01500
C930        C  0.37034752  0.70701422  0.34919544    -0.09100
C931        C  0.25282877  0.59445247  0.36209178     0.65200
H932        H  0.27096487  0.60589149  0.30981542     0.10700
C933        C  0.42571500  0.73707337  0.31202148     0.63600
H934        H  0.39894416  0.73370124  0.36098034     0.08000
F935        F  0.23761769  0.68218728  0.43787712    -0.19500
F936        F  0.30254571  0.75257446  0.43390883    -0.15700
F937        F  0.28695517  0.71476088  0.47161841    -0.19200
F938        F  0.42842996  0.67909845  0.37493006    -0.22600
F939        F  0.36429117  0.60835672  0.36796465    -0.24000
F940        F  0.40898460  0.62158656  0.40330486    -0.18000
F941        F  0.43848730  0.78303244  0.31455177    -0.20500
F942        F  0.43385832  0.72855418  0.28634236    -0.21700
F943        F  0.45515003  0.73052793  0.32766762    -0.18800
F944        F  0.22183079  0.56097907  0.34441451    -0.18900
F945        F  0.22901839  0.61097420  0.37642170    -0.22800
F946        F  0.26760392  0.57334146  0.37918642    -0.24400
C947        C  0.31454359  0.67173710  0.15312733    -0.11200
C948        C  0.33785293  0.65343076  0.13996677     0.11400
C949        C  0.36623478  0.64157423  0.15342554    -0.03000
C950        C  0.36823683  0.64661830  0.18083713    -0.05700
C951        C  0.34053368  0.65983359  0.19483862    -0.16500
C952        C  0.31529736  0.67600893  0.18042623     0.02400
C953        C  0.33735465  0.65499666  0.11161415     0.12400
C954        C  0.39464001  0.62450118  0.13897544     0.63000
H955        H  0.39394083  0.64322367  0.19090971     0.12400
C956        C  0.28972901  0.69987884  0.19080089     0.55100
H957        H  0.29590793  0.68369322  0.14159729     0.08200
C958        C  0.29814798  0.62276618  0.09703923    -0.05600
C959        C  0.29857004  0.63049794  0.07015294    -0.06300
C960        C  0.33626415  0.66951543  0.05773445    -0.15900
C961        C  0.37823128  0.69792351  0.07247056    -0.01500
C962        C  0.37551410  0.69294688  0.09974131    -0.09100
C963        C  0.25657696  0.58031039  0.10965386     0.65200
H964        H  0.27062153  0.60363829  0.05852844     0.10700
C965        C  0.42784181  0.73013076  0.06185331     0.63600
H966        H  0.40501919  0.71720119  0.11189421     0.08000
F967        F  0.24387267  0.67479342  0.18229023    -0.19500
F968        F  0.31101534  0.74378387  0.18005223    -0.15700
F969        F  0.28857520  0.70533749  0.21780792    -0.19200
F970        F  0.42874213  0.65927303  0.12339472    -0.22600
F971        F  0.36569794  0.58665805  0.12304730    -0.24000
F972        F  0.41654522  0.61103777  0.15645392    -0.18000
F973        F  0.44146446  0.77577122  0.06706294    -0.20500
F974        F  0.43376926  0.72472181  0.03526314    -0.21700
F975        F  0.45828229  0.72129141  0.07486978    -0.18800
F976        F  0.22231314  0.55346451  0.09127902    -0.18900
F977        F  0.23645134  0.59366121  0.12912722    -0.22800
F978        F  0.27110687  0.55304735  0.12081337    -0.24400
C979        C  0.33405289  0.67031329  0.52819944     0.30700
C980        C  0.33593252  0.66519999  0.97473898     0.30700
C981        C  0.35668978  0.64443240  0.51640668    -0.05500
C982        C  0.28537796  0.64514757  0.51457436    -0.06300
C983        C  0.35906605  0.71741363  0.51413756    -0.06200
C984        C  0.35754589  0.64099365  0.98897434    -0.05500
C985        C  0.28757320  0.64097710  0.98735811    -0.06300
C986        C  0.36176948  0.71365891  0.98703768    -0.06200
C987        C  0.37464808  0.61222765  0.98339262    -0.31600
N988        N  0.38607863  0.60117337  0.00652194     0.14900
C989        C  0.37505116  0.62020263  0.52682116    -0.31600
H990        H  0.37978249  0.61636447  0.54758389     0.16900
C991        C  0.24328245  0.61615698  0.97781052    -0.30500
N992        N  0.21312663  0.60755851  0.49803089     0.13700
C993        C  0.23803381  0.62545906  0.52072076    -0.30500
C994        C  0.38706636  0.75711685  0.97689848    -0.30800
N995        N  0.39880760  0.78834189  0.49688415     0.14200
H996        H  0.39502808  0.76516294  0.95613149     0.16800
C997        C  0.38110252  0.76471953  0.51990509    -0.30800
H998        H  0.38432394  0.78064572  0.53915756     0.16800
H999        H  0.22284344  0.62448585  0.53995303     0.16800
H1000       H  0.37762942  0.59871780  0.96439747     0.16900
H1001       H  0.23369403  0.60658020  0.95726237     0.16800
C1002       C  0.33526649  0.66889356  0.77751042     0.30700
C1003       C  0.34063688  0.65956408  0.72450748     0.30700
C1004       C  0.36112889  0.64458888  0.76821231    -0.05500
C1005       C  0.28754643  0.64015172  0.76311426    -0.06300
C1006       C  0.35868623  0.71450531  0.76207147    -0.06200
C1007       C  0.36372382  0.63902679  0.74097236    -0.05500
C1008       C  0.29127128  0.63388310  0.73624890    -0.06300
C1009       C  0.36391362  0.70918519  0.73540683    -0.06200
C1010       C  0.38309080  0.61174849  0.73760019    -0.31600
N1011       N  0.39435828  0.60365829  0.76166311     0.14900
C1012       C  0.38075552  0.62297266  0.78059924    -0.31600
H1013       H  0.38405281  0.62064969  0.80173283     0.16900
C1014       C  0.24710731  0.60831997  0.72599666    -0.30500
N1015       N  0.21600552  0.60133522  0.74542435     0.13700
C1016       C  0.24001997  0.62103573  0.76818927    -0.30500
C1017       C  0.38803607  0.75237544  0.72445640    -0.30800
N1018       N  0.39594695  0.78437945  0.74349886     0.14200
H1019       H  0.39776508  0.75960860  0.70378728     0.16800
C1020       C  0.37734659  0.76169318  0.76664498    -0.30800
H1021       H  0.37750688  0.77818956  0.78523354     0.16800
H1022       H  0.22416020  0.62275848  0.78666003     0.16800
H1023       H  0.38713155  0.59650697  0.71955011     0.16900
H1024       H  0.23834476  0.59808049  0.70543743     0.16800
C1025       C  0.16383234  0.58455169  0.49386748     0.43100
N1026       N  0.10378192  0.56492531  0.97011599     0.02000
C1027       C  0.38840308  0.52681251  0.00513734    -0.05800
H1028       H  0.42445447  0.93711392  0.56387194     0.07500
C1029       C  0.44485432  0.85713549  0.96682526    -0.06200
Co1030     Co  0.02817841  0.56825852  0.49998440     0.74200
N1031       N  0.46987166  0.98284027  0.53288618    -0.25400
Co1032     Co  0.42840736  0.96260205  0.99702771     0.74100
C1033       C  0.42590548  0.83747827  0.99277369     0.43200
N1034       N  0.02875567  0.94646801  0.93039994     0.01600
N1035       N  0.43278620  0.90406139  0.99001633     0.01800
N1036       N  0.45604756  0.59684087  0.00756347    -0.46200
H1037       H  0.13081464  0.59812089  0.53070699     0.07500
N1038       N  0.50883657  0.52418338  0.53412426     0.02000
N1039       N  0.38811132  0.94598323  0.96233436     0.01800
C1040       C  0.33013154  0.93095230  0.93728269     0.43400
N1041       N  0.06702126  0.98811487  0.93114420    -0.24800
C1042       C  0.04605828  0.65173310  0.96747198    -0.05700
N1043       N  0.14597940  0.57149953  0.96941752    -0.45900
N1044       N  0.34755197  0.94322267  0.96198514    -0.46200
C1045       C  0.06394620  0.67157620  0.94148783     0.43200
N1046       N  0.46388373  0.56268696  0.00386218     0.02000
N1047       N  0.02114288  0.52570928  0.90043025    -0.24800
N1048       N  0.09208649  0.57266319  0.99402382    -0.25300
N1049       N  0.48300243  0.98381450  0.89918022     0.01700
H1050       H  0.06624902  0.57187559  0.86952889     0.07600
H1051       H  0.36281086  0.91447480  0.90138859     0.07600
N1052       N  0.42513301  0.52162325  0.00240273    -0.25400
N1053       N  0.44674335  0.89739333  0.96655783    -0.25000
N1054       N  0.05700144  0.60479590  0.94339546     0.02000
C1055       C  0.49323391  0.00357739  0.57628211     0.43400
C1056       C  0.10449683  0.98386368  0.92946745    -0.06300
N1057       N  0.39972733  0.93687528  0.93877226    -0.25000
H1058       H  0.45188445  0.84162631  0.94988106     0.07600
N1059       N  0.02316760  0.53763640  0.55921324    -0.46200
H1060       H  0.14067276  0.01186781  0.93015465     0.07600
C1061       C  0.49861821  0.50436686  0.85707999     0.43300
C1062       C  0.12849207  0.58616967  0.51043259    -0.05800
Co1063     Co  0.06256102  0.54681797  0.93608473     0.73800
N1064       N  0.03777708  0.91278984  0.92831351    -0.45900
C1065       C  0.40928331  0.57645492  0.00924013     0.43500
N1066       N  0.07030838  0.64065700  0.92756957    -0.45900
Co1067     Co  0.46360505  0.94032939  0.93354502     0.73900
C1068       C  0.36465790  0.92599671  0.92172526    -0.06300
C1069       C  0.45759026  0.96722268  0.55824668    -0.05800
N1070       N  0.04404529  0.61138680  0.96720092    -0.25400
N1071       N  0.41892251  0.86842314  0.50611917    -0.46100
H1072       H  0.35197835  0.49942689  0.00437788     0.07500
C1073       C  0.03342388  0.54132957  0.87509923    -0.06200
Cl1074     Cl  0.49571160  0.50443246  0.96668216    -0.49200
C1075       C  0.08479889  0.93414841  0.92721222     0.43300
H1076       H  0.04020413  0.66740279  0.98478988     0.07500
N1077       N  0.46908127  0.96998894  0.87408519    -0.45900
C1078       C  0.16682044  0.58007100  0.74090166     0.43100
N1079       N  0.10575834  0.56125821  0.71816304     0.02000
C1080       C  0.39501761  0.52889022  0.76133602    -0.05800
H1081       H  0.42953034  0.93508151  0.81408824     0.07500
C1082       C  0.43661295  0.85371232  0.71270260    -0.06200
Co1083     Co  0.03311853  0.56679757  0.75060181     0.74200
N1084       N  0.47499470  0.98038136  0.78305253    -0.25400
Co1085     Co  0.43097543  0.96218804  0.74868710     0.74100
C1086       C  0.42018510  0.83338828  0.73870465     0.43200
N1087       N  0.02141206  0.94415114  0.67698924     0.01600
N1088       N  0.43212331  0.90224738  0.73920379     0.01800
N1089       N  0.46340026  0.59786837  0.76225092    -0.46200
H1090       H  0.13539468  0.59261736  0.77874383     0.07500
N1091       N  0.51425076  0.52150772  0.78417802     0.02000
N1092       N  0.38715226  0.94680413  0.71595937     0.00200
C1093       C  0.32564535  0.92806717  0.69398041     0.43400
N1094       N  0.06140747  0.98425506  0.67802299    -0.24800
C1095       C  0.05579112  0.65433564  0.72033295    -0.05700
N1096       N  0.14815262  0.56795971  0.71648326    -0.45900
N1097       N  0.34481230  0.93990595  0.71820038    -0.46200
C1098       C  0.07304362  0.67476227  0.69436568     0.43200
N1099       N  0.46993079  0.56322451  0.75682756     0.02000
N1100       N  0.01807307  0.52735369  0.65044545    -0.24800
N1101       N  0.09532759  0.56857421  0.74254939    -0.25300
N1102       N  0.47825233  0.98670605  0.64939239     0.01700
H1103       H  0.06369787  0.57217182  0.61926792     0.07600
H1104       H  0.35606462  0.91588554  0.65555204     0.07600
N1105       N  0.43054371  0.52259205  0.75618093    -0.25400
N1106       N  0.44247059  0.89579089  0.71464847    -0.25000
N1107       N  0.06078301  0.60564389  0.69426879     0.02000
C1108       C  0.49904554  0.00051997  0.82626448     0.43400
C1109       C  0.09628009  0.97646805  0.67414155    -0.06300
N1110       N  0.39717821  0.94002435  0.69136538    -0.25000
H1111       H  0.43974315  0.83805971  0.69453777     0.07600
N1112       N  0.02897763  0.53462914  0.80923549    -0.46200
H1113       H  0.13322198  0.00232804  0.67489623     0.07600
C1114       C  0.99344918  0.50741234  0.60719882     0.43300
C1115       C  0.13218948  0.58113996  0.75831170    -0.05800
Co1116     Co  0.06193918  0.54546297  0.68509415     0.73800
N1117       N  0.02667623  0.90849755  0.67260177    -0.45900
C1118       C  0.41698758  0.57868082  0.76612501     0.43500
N1119       N  0.07595440  0.64285407  0.67921664    -0.45900
Co1120     Co  0.45897969  0.94140730  0.68298929     0.73900
C1121       C  0.35991594  0.92750611  0.67598583    -0.06300
C1122       C  0.46306913  0.96452332  0.80835067    -0.05800
N1123       N  0.04970940  0.61214009  0.71865427    -0.25400
N1124       N  0.41744154  0.86504669  0.75417536    -0.46100
H1125       H  0.35833004  0.50211661  0.76128958     0.07500
C1126       C  0.03002136  0.54301809  0.62508319    -0.06200
Cl1127     Cl  0.49630152  0.50405307  0.71682451    -0.49200
C1128       C  0.07290140  0.92638142  0.66979135     0.43300
H1129       H  0.05270258  0.67020004  0.73840962     0.07500
N1130       N  0.46322578  0.97369417  0.62435205    -0.45900
C1131       C  0.15806091  0.83709867  0.90553389     0.30700
C1132       C  0.15756048  0.84440242  0.95929866     0.30700
C1133       C  0.13821555  0.86640413  0.91747657    -0.05500
C1134       C  0.13103399  0.79130556  0.92045220    -0.06300
C1135       C  0.20727188  0.86247990  0.91833450    -0.06200
C1136       C  0.13808824  0.86993647  0.94495095    -0.05500
C1137       C  0.13163197  0.79564233  0.94756734    -0.06300
C1138       C  0.20608443  0.86639933  0.94586057    -0.06200
C1139       C  0.12088807  0.89798751  0.95169456    -0.31600
N1140       N  0.10967015  0.91067062  0.92906422     0.14900
C1141       C  0.12128239  0.89303768  0.90815675    -0.31600
H1142       H  0.11732281  0.89929666  0.88771733     0.16900
C1143       C  0.10751350  0.75210979  0.95789317    -0.30500
N1144       N  0.09163187  0.72073443  0.93769120     0.13700
C1145       C  0.10593119  0.74414758  0.91448641    -0.30500
C1146       C  0.25087590  0.89623829  0.95401925    -0.30800
N1147       N  0.28044732  0.90663939  0.93331079     0.14200
H1148       H  0.26170572  0.90996767  0.97390225     0.16800
C1149       C  0.25448494  0.88775935  0.91097846    -0.30800
H1150       H  0.26876449  0.89341791  0.89114222     0.16800
H1151       H  0.09869931  0.72822969  0.89494430     0.16800
H1152       H  0.11633558  0.90802310  0.97144863     0.16900
H1153       H  0.10223262  0.74402404  0.97876903     0.16800
C1154       C  0.16001360  0.84119859  0.65717390     0.30700
C1155       C  0.15050951  0.84816394  0.71028815     0.30700
C1156       C  0.13074983  0.86232010  0.66614782    -0.05500
C1157       C  0.13460933  0.79442611  0.67197102    -0.06300
C1158       C  0.20576859  0.87065919  0.67252556    -0.06200
C1159       C  0.12721998  0.86675167  0.69322609    -0.05500
C1160       C  0.13288770  0.79905636  0.69926562    -0.06300
C1161       C  0.20097395  0.87399160  0.69969299    -0.06200
C1162       C  0.10486188  0.89059678  0.69775760    -0.31600
N1163       N  0.09377287  0.89976155  0.67396325     0.14900
C1164       C  0.10840698  0.88210783  0.65454224    -0.31600
H1165       H  0.10419012  0.88497433  0.63359015     0.16900
C1166       C  0.11468918  0.75594377  0.70987602    -0.30500
N1167       N  0.09978276  0.72401495  0.69003202     0.13700
C1168       C  0.11097106  0.74689096  0.66663835    -0.30500
C1169       C  0.24514670  0.89545049  0.71013403    -0.30800
N1170       N  0.27640292  0.90628363  0.69007937     0.14200
H1171       H  0.25412562  0.90069806  0.73092234     0.16800
C1172       C  0.25286068  0.89108257  0.66690983    -0.30800
H1173       H  0.26851829  0.89293186  0.64769882     0.16800
H1174       H  0.10059697  0.73010510  0.64746929     0.16800
H1175       H  0.09809864  0.90136748  0.71677725     0.16900
H1176       H  0.11224774  0.74823597  0.73071436     0.16800
C1177       C  0.10754924  0.81017152  0.77955987    -0.11200
C1178       C  0.14457417  0.84560708  0.79390188     0.11400
C1179       C  0.17742377  0.88768302  0.78165125    -0.03000
C1180       C  0.17555002  0.88978493  0.75411465    -0.05700
C1181       C  0.14187416  0.85127725  0.73940161    -0.16500
C1182       C  0.10229975  0.81542278  0.75296141     0.02400
C1183       C  0.14535294  0.83841800  0.82208692     0.12400
C1184       C  0.21457670  0.92918394  0.79733658     0.63000
H1185       H  0.20108143  0.92087821  0.74391203     0.12400
C1186       C  0.05329757  0.78441370  0.74176845     0.55100
H1187       H  0.08131255  0.77893915  0.78950577     0.08200
C1188       C  0.10987444  0.83478347  0.83903167    -0.05600
C1189       C  0.11185151  0.82577150  0.86547314    -0.06300
C1190       C  0.15194402  0.82913482  0.87599221    -0.15900
C1191       C  0.18142370  0.82254193  0.85846504    -0.01500
C1192       C  0.17889576  0.82957872  0.83146973    -0.09100
C1193       C  0.07145460  0.84244267  0.82985635     0.65200
H1194       H  0.08317778  0.81913430  0.87850314     0.10700
C1195       C  0.21013609  0.80172095  0.86590324     0.63600
H1196       H  0.20215106  0.82669779  0.81749777     0.08000
F1197       F  0.02308906  0.79344898  0.75568158    -0.19500
F1198       F  0.03816375  0.73814274  0.74517475    -0.15700
F1199       F  0.04978218  0.79155330  0.71534048    -0.19200
F1200       F  0.24629236  0.91923763  0.80739227    -0.22600
F1201       F  0.19404403  0.93962805  0.81806638    -0.24000
F1202       F  0.23880125  0.96822140  0.78173557    -0.18000
F1203       F  0.19490170  0.76144189  0.85112812    -0.20500
F1204       F  0.20583322  0.78987312  0.89224340    -0.21700
F1205       F  0.25672286  0.83227221  0.85993315    -0.18800
F1206       F  0.04742343  0.84702011  0.85105570    -0.18900
F1207       F  0.03943710  0.80535628  0.81457657    -0.22800
F1208       F  0.09051334  0.88254734  0.81517842    -0.24400
C1209       C  0.11917441  0.83253415  0.53253607    -0.11200
C1210       C  0.16020560  0.84119098  0.54446476     0.11400
C1211       C  0.19788304  0.84649736  0.52914133    -0.03000
C1212       C  0.19288423  0.84323390  0.00189325    -0.05700
C1213       C  0.15542299  0.84246294  0.98927932    -0.16500
C1214       C  0.11502574  0.83127550  0.50494175     0.02400
C1215       C  0.16226758  0.84242362  0.57316974     0.12400
C1216       C  0.24320002  0.85536620  0.54118761     0.63000
H1217       H  0.21779914  0.83898275  0.99050809     0.12400
C1218       C  0.06586933  0.81411019  0.99495099     0.55100
H1219       H  0.08961805  0.82548259  0.54502574     0.08200
C1220       C  0.17195970  0.88257352  0.58751934    -0.05600
C1221       C  0.17732920  0.88270225  0.61476698    -0.06300
C1222       C  0.16901322  0.84273266  0.62781896    -0.15900
C1223       C  0.17016892  0.80767234  0.61276558    -0.01500
C1224       C  0.16134300  0.80542500  0.58573911    -0.09100
C1225       C  0.17596998  0.92455528  0.57432977     0.65200
H1226       H  0.18559180  0.91330941  0.62633579     0.10700
C1227       C  0.19053271  0.77960283  0.62227620     0.63600
H1228       H  0.15796796  0.77669026  0.57395528     0.08000
F1229       F  0.05416351  0.84678056  0.00107166    -0.19500
F1230       F  0.03446327  0.77334530  0.00771487    -0.15700
F1231       F  0.05977211  0.80435305  0.96819885    -0.19200
F1232       F  0.23599143  0.81551212  0.55281416    -0.22600
F1233       F  0.25931211  0.89058402  0.56003942    -0.24000
F1234       F  0.27802820  0.86872101  0.52219656    -0.18000
F1235       F  0.15831963  0.73262097  0.61949097    -0.20500
F1236       F  0.22903851  0.79005242  0.60673077    -0.21700
F1237       F  0.20571137  0.78964106  0.64816743    -0.18800
F1238       F  0.18597026  0.95970284  0.59247983    -0.18900
F1239       F  0.13425809  0.91216149  0.56233414    -0.22800
F1240       F  0.21122472  0.94186420  0.55545374    -0.24400
C1241       C  0.30982736  0.68573561  0.90477596    -0.11200
C1242       C  0.33423614  0.66997597  0.89033373     0.11400
C1243       C  0.36214792  0.65621619  0.90263336    -0.03000
C1244       C  0.36339997  0.65756526  0.93007107    -0.05700
C1245       C  0.33509672  0.66851761  0.94520948    -0.16500
C1246       C  0.31022996  0.68665373  0.93224020     0.02400
C1247       C  0.33190848  0.67095103  0.86201384     0.12400
C1248       C  0.39124886  0.64114646  0.88705556     0.63000
H1249       H  0.38901406  0.65321790  0.93938405     0.12400
C1250       C  0.28437651  0.70890425  0.94453325     0.55100
H1251       H  0.29064582  0.69814899  0.89426090     0.08200
C1252       C  0.29463558  0.63450107  0.84804366    -0.05600
C1253       C  0.29741159  0.63567534  0.82060845    -0.06300
C1254       C  0.33558175  0.67241242  0.80709656    -0.15900
C1255       C  0.37552695  0.70571607  0.82194048    -0.01500
C1256       C  0.37034726  0.70701425  0.84919553    -0.09100
C1257       C  0.25282829  0.59445267  0.86209176     0.65200
H1258       H  0.27096517  0.60589117  0.80981550     0.10700
C1259       C  0.42571495  0.73707327  0.81202167     0.63600
H1260       H  0.39894395  0.73370129  0.86098052     0.08000
F1261       F  0.23761789  0.68218665  0.93787703    -0.19500
F1262       F  0.30254616  0.75257397  0.93390965    -0.15700
F1263       F  0.28695441  0.71475898  0.97161879    -0.19200
F1264       F  0.42842956  0.67909734  0.87493000    -0.22600
F1265       F  0.36429017  0.60835634  0.86796379    -0.24000
F1266       F  0.40898278  0.62158414  0.90330412    -0.18000
F1267       F  0.43848733  0.78303238  0.81455180    -0.20500
F1268       F  0.43385835  0.72855384  0.78634263    -0.21700
F1269       F  0.45514985  0.73052790  0.82766798    -0.18800
F1270       F  0.22183043  0.56097917  0.84441448    -0.18900
F1271       F  0.22901792  0.61097475  0.87642137    -0.22800
F1272       F  0.26760306  0.57334168  0.87918667    -0.24400
C1273       C  0.31454264  0.67173558  0.65312751    -0.11200
C1274       C  0.33785182  0.65342910  0.63996690     0.11400
C1275       C  0.36623385  0.64157274  0.65342563    -0.03000
C1276       C  0.36823633  0.64661720  0.68083721    -0.05700
C1277       C  0.34053348  0.65983280  0.69483875    -0.16500
C1278       C  0.31529688  0.67600783  0.68042640     0.02400
C1279       C  0.33735368  0.65499532  0.61161427     0.12400
C1280       C  0.39463891  0.62449957  0.63897548     0.63000
H1281       H  0.39394041  0.64322263  0.69090972     0.12400
C1282       C  0.28972859  0.69987779  0.69080109     0.55100
H1283       H  0.29590688  0.68369154  0.64159754     0.08200
C1284       C  0.29814713  0.62276508  0.59703918    -0.05600
C1285       C  0.29856930  0.63049738  0.57015293    -0.06300
C1286       C  0.33626348  0.66951515  0.55773464    -0.15900
C1287       C  0.37823052  0.69792283  0.57247087    -0.01500
C1288       C  0.37551316  0.69294579  0.59974161    -0.09100
C1289       C  0.25657620  0.58030884  0.60965353     0.65200
H1290       H  0.27062101  0.60363805  0.55852831     0.10700
C1291       C  0.42784116  0.73012979  0.56185373     0.63600
H1292       H  0.40501816  0.71719989  0.61189460     0.08000
F1293       F  0.24387221  0.67479233  0.68229051    -0.19500
F1294       F  0.31101487  0.74378277  0.68005238    -0.15700
F1295       F  0.28857491  0.70533653  0.71780813    -0.19200
F1296       F  0.42874085  0.65927129  0.62339461    -0.22600
F1297       F  0.36569665  0.58665632  0.62304747    -0.24000
F1298       F  0.41654431  0.61103630  0.65645390    -0.18000
F1299       F  0.44146418  0.77577035  0.56706336    -0.20500
F1300       F  0.43376864  0.72472072  0.53526359    -0.21700
F1301       F  0.45828133  0.72129011  0.57487028    -0.18800
F1302       F  0.22231226  0.55346362  0.59127861    -0.18900
F1303       F  0.23645068  0.59365892  0.62912737    -0.22800
F1304       F  0.27110621  0.55304540  0.62081238    -0.24400
C1305       C  0.83405351  0.17031318  0.02819937     0.30700
C1306       C  0.83593195  0.16520064  0.47473921     0.30700
C1307       C  0.85669113  0.14443287  0.01640678    -0.05500
C1308       C  0.78537856  0.14514662  0.01457428    -0.06300
C1309       C  0.85906602  0.21741334  0.01413738    -0.06200
C1310       C  0.85754439  0.14099330  0.48897448    -0.05500
C1311       C  0.78757269  0.14097866  0.48735837    -0.06300
C1312       C  0.86176973  0.21365942  0.48703802    -0.06200
C1313       C  0.87464619  0.11222700  0.48339258    -0.31600
N1314       N  0.88607665  0.10117237  0.50652184     0.14900
C1315       C  0.87505284  0.12020357  0.02682146    -0.31600
H1316       H  0.87978398  0.11636548  0.04758435     0.16900
C1317       C  0.74328193  0.11615878  0.47781076    -0.30500
N1318       N  0.71312726  0.10755737  0.99803071     0.13700
C1319       C  0.73803436  0.12545817  0.02072060    -0.30500
C1320       C  0.88706695  0.25711733  0.47689886    -0.30800
N1321       N  0.89880731  0.28834150  0.99688387     0.14200
H1322       H  0.89502840  0.26516344  0.45613190     0.16800
C1323       C  0.88110220  0.26471923  0.01990482    -0.30800
H1324       H  0.88432358  0.28064551  0.03915732     0.16800
H1325       H  0.72284405  0.12448549  0.03995267     0.16800
H1326       H  0.87762755  0.09871746  0.46439742     0.16900
H1327       H  0.73369358  0.10658205  0.45726284     0.16800
C1328       C  0.83526616  0.16889366  0.27751045     0.30700
C1329       C  0.84063682  0.15956440  0.22450749     0.30700
C1330       C  0.86112843  0.14458881  0.26821233    -0.05500
C1331       C  0.78754616  0.14015204  0.26311418    -0.06300
C1332       C  0.85868608  0.21450548  0.26207155    -0.06200
C1333       C  0.86372346  0.13902684  0.24097237    -0.05500
C1334       C  0.79127114  0.13388362  0.23624880    -0.06300
C1335       C  0.86391365  0.20918541  0.23540693    -0.06200
C1336       C  0.88309050  0.11174860  0.23760016    -0.31600
N1337       N  0.89435797  0.10365830  0.26166303     0.14900
C1338       C  0.88075511  0.12297258  0.28059922    -0.31600
H1339       H  0.88405242  0.12064958  0.30173276     0.16900
C1340       C  0.74710725  0.10832077  0.22599644    -0.30500
N1341       N  0.71600537  0.10133588  0.24542410     0.13700
C1342       C  0.74001968  0.12103611  0.26818911    -0.30500
C1343       C  0.88803624  0.25237564  0.22445647    -0.30800
N1344       N  0.89594694  0.28437962  0.24349897     0.14200
H1345       H  0.89776528  0.25960873  0.20378761     0.16800
C1346       C  0.87734641  0.26169334  0.26664501    -0.30800
H1347       H  0.87750654  0.27818988  0.28523372     0.16800
H1348       H  0.72415984  0.12275866  0.28665982     0.16800
H1349       H  0.88713134  0.09650716  0.21955001     0.16900
H1350       H  0.73834481  0.09808148  0.20543719     0.16800
C1351       C  0.66383303  0.08455123  0.99386718     0.43100
N1352       N  0.60378132  0.06492566  0.47011628     0.02000
C1353       C  0.88840178  0.02681180  0.50513725    -0.05800
H1354       H  0.92445487  0.43711387  0.06387168     0.07500
C1355       C  0.94485478  0.35713584  0.46682559    -0.06200
Co1356     Co  0.52817935  0.06825839  0.99998443     0.74200
N1357       N  0.96987222  0.48283995  0.03288601    -0.25400
Co1358     Co  0.92840679  0.46260188  0.49702781     0.74100
C1359       C  0.92590618  0.33747872  0.49277407     0.43200
N1360       N  0.52875552  0.44646821  0.43040002     0.01600
N1361       N  0.93278611  0.40406148  0.49001653     0.01800
N1362       N  0.95604600  0.09684046  0.50756323    -0.46200
H1363       H  0.63081534  0.09811981  0.03070685     0.07500
N1364       N  0.00883724  0.02418291  0.03412416     0.02000
N1365       N  0.88811071  0.44598269  0.46233441     0.01800
C1366       C  0.83013095  0.43095163  0.43728268     0.43400
N1367       N  0.56702107  0.48811504  0.43114440    -0.24800
C1368       C  0.54605734  0.15173306  0.46747179    -0.05700
N1369       N  0.64597886  0.07150005  0.46941793    -0.45900
N1370       N  0.84755127  0.44322193  0.46198517    -0.46200
C1371       C  0.56394545  0.17157609  0.44148766     0.43200
N1372       N  0.96388250  0.06268672  0.50386211     0.02000
N1373       N  0.52114277  0.02570922  0.40043029    -0.24800
N1374       N  0.59208579  0.07266376  0.49402404    -0.25300
N1375       N  0.98300218  0.48381432  0.39918020     0.01700
H1376       H  0.56624935  0.07187564  0.36952893     0.07600
H1377       H  0.86281060  0.41447450  0.40138856     0.07600
N1378       N  0.92513196  0.02162288  0.50240275    -0.25400
N1379       N  0.94674327  0.39739341  0.46655803    -0.25000
N1380       N  0.55700070  0.10479582  0.44339545     0.02000
C1381       C  0.99323434  0.50357685  0.07628197     0.43400
C1382       C  0.60449669  0.48386388  0.42946767    -0.06300
N1383       N  0.89972690  0.43687494  0.43877231    -0.25000
H1384       H  0.95188510  0.34162668  0.44988142     0.07600
N1385       N  0.52316816  0.03763589  0.05921317    -0.46200
H1386       H  0.64067250  0.51186793  0.43015492     0.07600
C1387       C  0.99861829  0.00436655  0.35708000     0.43300
C1388       C  0.62849279  0.08616898  0.01043244    -0.05800
Co1389     Co  0.56256057  0.04681804  0.43608492     0.73800
N1390       N  0.53777693  0.41279005  0.42831350    -0.45900
C1391       C  0.90928170  0.07645421  0.50923983     0.43500
N1392       N  0.57030770  0.14065684  0.42756950    -0.45900
Co1393     Co  0.96360476  0.44032928  0.43354511     0.73900
C1394       C  0.86465748  0.42599629  0.42172528    -0.06300
C1395       C  0.95759061  0.46722227  0.05824651    -0.05800
N1396       N  0.54404437  0.11138679  0.46720086    -0.25400
N1397       N  0.91892241  0.36842281  0.00611890    -0.46100
H1398       H  0.85197723  0.99942606  0.50437785     0.07500
C1399       C  0.53342392  0.04132942  0.37509926    -0.06200
Cl1400     Cl  0.99571106  0.00443248  0.46668233    -0.49200
C1401       C  0.58479872  0.43414860  0.42721231     0.43300
H1402       H  0.54020315  0.16740289  0.48478971     0.07500
N1403       N  0.96908116  0.46998880  0.37408515    -0.45900
C1404       C  0.66682028  0.08007153  0.24090139     0.43100
N1405       N  0.60575809  0.06125839  0.21816279     0.02000
C1406       C  0.89501736  0.02889020  0.26133596    -0.05800
H1407       H  0.92953005  0.43508125  0.31408818     0.07500
C1408       C  0.93661283  0.35371237  0.21270261    -0.06200
Co1409     Co  0.53311822  0.06679770  0.25060161     0.74200
N1410       N  0.97499443  0.48038143  0.28305243    -0.25400
Co1411     Co  0.93097518  0.46218806  0.24868698     0.74100
C1412       C  0.92018502  0.33338842  0.23870467     0.43200
N1413       N  0.52141198  0.44415123  0.17698927     0.01600
N1414       N  0.93212312  0.40224744  0.23920374     0.01800
N1415       N  0.96339999  0.09786835  0.26225067    -0.46200
H1416       H  0.63539449  0.09261786  0.27874357     0.07500
N1417       N  0.01425057  0.02150773  0.28417794     0.02000
N1418       N  0.88715202  0.44680400  0.21595922     0.00200
C1419       C  0.82564504  0.42806674  0.19398027     0.43400
N1420       N  0.56140732  0.48425514  0.17802298    -0.24800
C1421       C  0.55579054  0.15433553  0.22033246    -0.05700
N1422       N  0.64815246  0.06796014  0.21648299    -0.45900
N1423       N  0.84481199  0.43990566  0.21820022    -0.46200
C1424       C  0.57304301  0.17476209  0.19436517     0.43200
N1425       N  0.96993050  0.06322447  0.25682737     0.02000
N1426       N  0.51807282  0.02735357  0.15044527    -0.24800
N1427       N  0.59532730  0.06857438  0.24254915    -0.25300
N1428       N  0.97825224  0.48670579  0.14939224     0.01700
H1429       H  0.56369801  0.07217167  0.11926773     0.07600
H1430       H  0.85606440  0.41588515  0.15555209     0.07600
N1431       N  0.93054343  0.02259199  0.25618083    -0.25400
N1432       N  0.94247039  0.39579090  0.21464844    -0.25000
N1433       N  0.56078263  0.10564381  0.19426845     0.02000
C1434       C  0.99904547  0.50051992  0.32626439     0.43400
C1435       C  0.59628004  0.47646824  0.17414154    -0.06300
N1436       N  0.89717802  0.44002420  0.19136526    -0.25000
H1437       H  0.93974303  0.33805973  0.19453779     0.07600
N1438       N  0.52897751  0.03462928  0.30923541    -0.46200
H1439       H  0.63322167  0.50232811  0.17489614     0.07600
C1440       C  0.49344915  0.00741200  0.10719866     0.43300
C1441       C  0.63218925  0.08114032  0.25831143    -0.05800
Co1442     Co  0.56193888  0.04546295  0.18509396     0.73800
N1443       N  0.52667620  0.40849764  0.17260181    -0.45900
C1444       C  0.91698732  0.07868084  0.26612487     0.43500
N1445       N  0.57595386  0.14285382  0.17921621    -0.45900
Co1446     Co  0.95897953  0.44140716  0.18298920     0.73900
C1447       C  0.85991568  0.42750573  0.17598568    -0.06300
C1448       C  0.96306902  0.46452336  0.30835056    -0.05800
N1449       N  0.54970897  0.11214010  0.21865394    -0.25400
N1450       N  0.91744138  0.36504681  0.25417535    -0.46100
H1451       H  0.85832974  0.00211652  0.26128965     0.07500
C1452       C  0.53002118  0.04301780  0.12508303    -0.06200
Cl1453     Cl  0.99630121  0.00405287  0.21682435    -0.49200
C1454       C  0.57290135  0.42638161  0.16979135     0.43300
H1455       H  0.55270191  0.17020019  0.23840931     0.07500
N1456       N  0.96322582  0.47369381  0.12435189    -0.45900
C1457       C  0.65806029  0.33709853  0.40553377     0.30700
C1458       C  0.65755994  0.34440218  0.45929859     0.30700
C1459       C  0.63821489  0.36640391  0.41747653    -0.05500
C1460       C  0.63103349  0.29130541  0.42045206    -0.06300
C1461       C  0.70727129  0.36247981  0.41833438    -0.06200
C1462       C  0.63808757  0.36993615  0.44495091    -0.05500
C1463       C  0.63163159  0.29564214  0.44756721    -0.06300
C1464       C  0.70608386  0.36639924  0.44586047    -0.06200
C1465       C  0.62088758  0.39798731  0.45169457    -0.31600
N1466       N  0.60966990  0.41067072  0.42906427     0.14900
C1467       C  0.62128206  0.39303778  0.40815676    -0.31600
H1468       H  0.61732270  0.39929702  0.38771735     0.16900
C1469       C  0.60751320  0.25210959  0.45789306    -0.30500
N1470       N  0.59163143  0.22073428  0.43769103     0.13700
C1471       C  0.60593065  0.24414745  0.41448627    -0.30500
C1472       C  0.75087532  0.39623796  0.45401914    -0.30800
N1473       N  0.78044675  0.40663889  0.43331074     0.14200
H1474       H  0.76170523  0.40996736  0.47390235     0.16800
C1475       C  0.75448439  0.38775893  0.41097834    -0.30800
H1476       H  0.76876387  0.39341712  0.39114229     0.16800
H1477       H  0.59869859  0.22822953  0.39494410     0.16800
H1478       H  0.61633515  0.40802290  0.47144869     0.16900
H1479       H  0.60223243  0.24402391  0.47876866     0.16800
C1480       C  0.66001340  0.34119871  0.15717364     0.30700
C1481       C  0.65050912  0.34816362  0.21028789     0.30700
C1482       C  0.63074990  0.36232045  0.16614763    -0.05500
C1483       C  0.63460876  0.29442604  0.17197060    -0.06300
C1484       C  0.70576836  0.37065889  0.17252537    -0.06200
C1485       C  0.62721999  0.36675183  0.19322591    -0.05500
C1486       C  0.63288697  0.29905609  0.19926520    -0.06300
C1487       C  0.70097363  0.37399103  0.19969281    -0.06200
C1488       C  0.60486193  0.39059695  0.19775750    -0.31600
N1489       N  0.59377293  0.39976184  0.17396320     0.14900
C1490       C  0.60840700  0.38210820  0.15454211    -0.31600
H1491       H  0.60419001  0.38497464  0.13359021     0.16900
C1492       C  0.61468843  0.25594348  0.20987550    -0.30500
N1493       N  0.59978217  0.22401475  0.19003147     0.13700
C1494       C  0.61097074  0.24689090  0.16663781    -0.30500
C1495       C  0.74514636  0.39544979  0.21013388    -0.30800
N1496       N  0.77640261  0.40628308  0.19007921     0.14200
H1497       H  0.75412526  0.40069725  0.23092218     0.16800
C1498       C  0.75286044  0.39108229  0.16690966    -0.30800
H1499       H  0.76851816  0.39293186  0.14769856     0.16800
H1500       H  0.60059727  0.23010517  0.14746872     0.16800
H1501       H  0.59809860  0.40136749  0.21677722     0.16900
H1502       H  0.61224695  0.24823557  0.23071391     0.16800
C1503       C  0.60754834  0.31017112  0.27955959    -0.11200
C1504       C  0.64457336  0.34560649  0.29390164     0.11400
C1505       C  0.67742334  0.38768229  0.28165102    -0.03000
C1506       C  0.67554970  0.38978427  0.25411442    -0.05700
C1507       C  0.64187372  0.35127676  0.23940135    -0.16500
C1508       C  0.60229909  0.31542245  0.25296110     0.02400
C1509       C  0.64535204  0.33841739  0.32208670     0.12400
C1510       C  0.71457650  0.42918302  0.29733636     0.63000
H1511       H  0.70108124  0.42087753  0.24391183     0.12400
C1512       C  0.55329695  0.28441357  0.24176804     0.55100
H1513       H  0.58131138  0.27893885  0.28950549     0.08200
C1514       C  0.60987390  0.33478357  0.33903147    -0.05600
C1515       C  0.61185101  0.32577183  0.36547299    -0.06300
C1516       C  0.65194336  0.32913477  0.37599206    -0.15900
C1517       C  0.68142261  0.32254120  0.35846488    -0.01500
C1518       C  0.67889447  0.32957758  0.33146954    -0.09100
C1519       C  0.57145444  0.34244331  0.32985613     0.65200
H1520       H  0.58317739  0.31913492  0.37850296     0.10700
C1521       C  0.71013481  0.30172006  0.36590316     0.63600
H1522       H  0.70214954  0.32669610  0.31749750     0.08000
F1523       F  0.52308841  0.29344873  0.25568122    -0.19500
F1524       F  0.53816302  0.23814256  0.24517417    -0.15700
F1525       F  0.54978169  0.29155347  0.21534010    -0.19200
F1526       F  0.74629098  0.41923578  0.30739281    -0.22600
F1527       F  0.69404384  0.43962835  0.31806560    -0.24000
F1528       F  0.73880249  0.46822005  0.28173517    -0.18000
F1529       F  0.69489979  0.26144055  0.35112838    -0.20500
F1530       F  0.70583244  0.28987293  0.39224341    -0.21700
F1531       F  0.75672154  0.33227088  0.35993271    -0.18800
F1532       F  0.54742326  0.34702082  0.35105544    -0.18900
F1533       F  0.53943683  0.30535724  0.31457619    -0.22800
F1534       F  0.59051367  0.38254817  0.31517834    -0.24400
C1535       C  0.61917480  0.33253416  0.03253584    -0.11200
C1536       C  0.66020603  0.34119134  0.04446460     0.11400
C1537       C  0.69788378  0.34649824  0.02914124    -0.03000
C1538       C  0.69288353  0.34323338  0.50189320    -0.05700
C1539       C  0.65542237  0.34246257  0.48927927    -0.16500
C1540       C  0.61502637  0.33127593  0.00494155     0.02400
C1541       C  0.66226784  0.34242397  0.07316953     0.12400
C1542       C  0.74320090  0.35536752  0.04118757     0.63000
H1543       H  0.71779839  0.33898238  0.49050807     0.12400
C1544       C  0.56586868  0.31410969  0.49495079     0.55100
H1545       H  0.58961806  0.32548215  0.04502553     0.08200
C1546       C  0.67195936  0.38257370  0.08751910    -0.05600
C1547       C  0.67732883  0.38270252  0.11476674    -0.06300
C1548       C  0.66901315  0.34273301  0.12781872    -0.15900
C1549       C  0.67016944  0.30767298  0.11276538    -0.01500
C1550       C  0.66134368  0.30542561  0.08573891    -0.09100
C1551       C  0.67596913  0.42455521  0.07432946     0.65200
H1552       H  0.68559123  0.41330959  0.12633551     0.10700
C1553       C  0.69053365  0.27960392  0.12227610     0.63600
H1554       H  0.65796904  0.27669087  0.07395504     0.08000
F1555       F  0.55416288  0.34678013  0.50107128    -0.19500
F1556       F  0.53446251  0.27334490  0.50771472    -0.15700
F1557       F  0.55977157  0.30435235  0.46819867    -0.19200
F1558       F  0.73599265  0.31551366  0.05281424    -0.22600
F1559       F  0.75931274  0.39058547  0.06003931    -0.24000
F1560       F  0.77802914  0.36872246  0.02219654    -0.18000
F1561       F  0.65832116  0.23262199  0.11949049    -0.20500
F1562       F  0.72904009  0.29005450  0.10673101    -0.21700
F1563       F  0.70571148  0.28964169  0.14816749    -0.18800
F1564       F  0.68596909  0.45970277  0.09247946    -0.18900
F1565       F  0.63425713  0.41216099  0.06233380    -0.22800
F1566       F  0.71122387  0.44186435  0.05545343    -0.24400
C1567       C  0.80982723  0.18573624  0.40477601    -0.11200
C1568       C  0.83423597  0.16997638  0.39033389     0.11400
C1569       C  0.86214781  0.15621683  0.40263366    -0.03000
C1570       C  0.86339980  0.15756613  0.43007137    -0.05700
C1571       C  0.83509641  0.16851847  0.44520969    -0.16500
C1572       C  0.81022995  0.18665477  0.43224027     0.02400
C1573       C  0.83190837  0.17095119  0.36201395     0.12400
C1574       C  0.89124867  0.14114685  0.38705598     0.63000
H1575       H  0.88901384  0.15321890  0.43938444     0.12400
C1576       C  0.78437686  0.20890573  0.44453321     0.55100
H1577       H  0.79064572  0.19814950  0.39426087     0.08200
C1578       C  0.79463537  0.13450125  0.34804380    -0.05600
C1579       C  0.79741117  0.13567559  0.32060855    -0.06300
C1580       C  0.83558141  0.17241254  0.30709661    -0.15900
C1581       C  0.87552672  0.20571610  0.32194051    -0.01500
C1582       C  0.87034712  0.20701431  0.34919556    -0.09100
C1583       C  0.75282825  0.09445273  0.36209195     0.65200
H1584       H  0.77096455  0.10589156  0.30981560     0.10700
C1585       C  0.92571468  0.23707332  0.31202163     0.63600
H1586       H  0.89894402  0.23370153  0.36098057     0.08000
F1587       F  0.73761803  0.18218790  0.43787747    -0.19500
F1588       F  0.80254609  0.25257502  0.43390908    -0.15700
F1589       F  0.78695569  0.21476150  0.47161869    -0.19200
F1590       F  0.92842890  0.17909737  0.37492989    -0.22600
F1591       F  0.86428961  0.10835592  0.36796466    -0.24000
F1592       F  0.90898328  0.12158543  0.40330471    -0.18000
F1593       F  0.93848703  0.28303242  0.31455185    -0.20500
F1594       F  0.93385805  0.22855400  0.28634256    -0.21700
F1595       F  0.95514966  0.23052791  0.32766785    -0.18800
F1596       F  0.72183023  0.06097934  0.34441468    -0.18900
F1597       F  0.72901797  0.11097463  0.37642183    -0.22800
F1598       F  0.76760326  0.07334165  0.37918663    -0.24400
C1599       C  0.81454403  0.17173722  0.15312745    -0.11200
C1600       C  0.83785334  0.15343083  0.13996691     0.11400
C1601       C  0.86623512  0.14157427  0.15342570    -0.03000
C1602       C  0.86823708  0.14661824  0.18083732    -0.05700
C1603       C  0.84053381  0.15983347  0.19483876    -0.16500
C1604       C  0.81529765  0.17600893  0.18042636     0.02400
C1605       C  0.83735502  0.15499671  0.11161428     0.12400
C1606       C  0.89464045  0.12450130  0.13897564     0.63000
H1607       H  0.89394073  0.14322369  0.19090977     0.12400
C1608       C  0.78972937  0.19987893  0.19080099     0.55100
H1609       H  0.79590852  0.18369343  0.14159742     0.08200
C1610       C  0.79814826  0.12276632  0.09703938    -0.05600
C1611       C  0.79857021  0.13049812  0.07015309    -0.06300
C1612       C  0.83626432  0.16951558  0.05773458    -0.15900
C1613       C  0.87823149  0.19792365  0.07247067    -0.01500
C1614       C  0.87551442  0.19294693  0.09974142    -0.09100
C1615       C  0.75657723  0.08031057  0.10965403     0.65200
H1616       H  0.77062166  0.10363857  0.05852863     0.10700
C1617       C  0.92784200  0.23013095  0.06185340     0.63600
H1618       H  0.90501957  0.21720122  0.11189431     0.08000
F1619       F  0.74387313  0.17479372  0.18229017    -0.19500
F1620       F  0.81101597  0.24378404  0.18005242    -0.15700
F1621       F  0.78857529  0.20533740  0.21780803    -0.19200
F1622       F  0.92874251  0.15927317  0.12339491    -0.22600
F1623       F  0.86569844  0.08665815  0.12304751    -0.24000
F1624       F  0.91654573  0.11103799  0.15645412    -0.18000
F1625       F  0.94146460  0.27577141  0.06706300    -0.20500
F1626       F  0.93376943  0.22472191  0.03526324    -0.21700
F1627       F  0.95828253  0.22129171  0.07486989    -0.18800
F1628       F  0.72231342  0.05346465  0.09127919    -0.18900
F1629       F  0.73645161  0.09366148  0.12912735    -0.22800
F1630       F  0.77110713  0.05304757  0.12081361    -0.24400
C1631       C  0.83405300  0.17031340  0.52819957     0.30700
C1632       C  0.83593253  0.16519999  0.97473905     0.30700
C1633       C  0.85668975  0.14443237  0.51640683    -0.05500
C1634       C  0.78537805  0.14514774  0.51457447    -0.06300
C1635       C  0.85906630  0.21741373  0.51413769    -0.06200
C1636       C  0.85754584  0.14099359  0.98897443    -0.05500
C1637       C  0.78757324  0.14097723  0.98735823    -0.06300
C1638       C  0.86176961  0.21365893  0.98703774    -0.06200
C1639       C  0.87464810  0.11222760  0.98339271    -0.31600
N1640       N  0.88607874  0.10117346  0.00652211     0.14900
C1641       C  0.87505106  0.12020256  0.52682135    -0.31600
H1642       H  0.87978236  0.11636444  0.54758400     0.16900
C1643       C  0.74328247  0.11615716  0.97781060    -0.30500
N1644       N  0.71312675  0.10755869  0.49803094     0.13700
C1645       C  0.73803388  0.12545916  0.52072084    -0.30500
C1646       C  0.88706659  0.25711684  0.97689857    -0.30800
N1647       N  0.89880794  0.28834195  0.49688427     0.14200
H1648       H  0.89502838  0.26516300  0.95613138     0.16800
C1649       C  0.88110283  0.26471963  0.51990515    -0.30800
H1650       H  0.88432425  0.28064608  0.53915788     0.16800
H1651       H  0.72284343  0.12448583  0.53995312     0.16800
H1652       H  0.87762940  0.09871781  0.96439784     0.16900
H1653       H  0.73369418  0.10658051  0.95726268     0.16800
C1654       C  0.83526639  0.16889350  0.77751050     0.30700
C1655       C  0.84063691  0.15956408  0.72450757     0.30700
C1656       C  0.86112870  0.14458871  0.76821240    -0.05500
C1657       C  0.78754636  0.14015174  0.76311428    -0.06300
C1658       C  0.85868625  0.21450528  0.76207156    -0.06200
C1659       C  0.86372372  0.13902670  0.74097246    -0.05500
C1660       C  0.79127127  0.13388317  0.73624893    -0.06300
C1661       C  0.86391370  0.20918518  0.73540693    -0.06200
C1662       C  0.88309072  0.11174841  0.73760028    -0.31600
N1663       N  0.89435811  0.10365810  0.76166317     0.14900
C1664       C  0.88075523  0.12297238  0.78059936    -0.31600
H1665       H  0.88405236  0.12064931  0.80173272     0.16900
C1666       C  0.74710732  0.10832009  0.72599665    -0.30500
N1667       N  0.71600549  0.10133526  0.74542430     0.13700
C1668       C  0.74001988  0.12103572  0.76818927    -0.30500
C1669       C  0.88803618  0.25237543  0.72445650    -0.30800
N1670       N  0.89594701  0.28437944  0.74349895     0.14200
H1671       H  0.89776522  0.25960860  0.70378737     0.16800
C1672       C  0.87734660  0.26169316  0.76664506    -0.30800
H1673       H  0.87750682  0.27818953  0.78523359     0.16800
H1674       H  0.72416016  0.12275839  0.78665988     0.16800
H1675       H  0.88713155  0.09650694  0.71955020     0.16900
H1676       H  0.73834480  0.09808064  0.70543737     0.16800
C1677       C  0.66383247  0.08455196  0.49386749     0.43100
N1678       N  0.60378194  0.06492546  0.97011605     0.02000
C1679       C  0.88840306  0.02681253  0.00513745    -0.05800
H1680       H  0.92445457  0.43711391  0.56387195     0.07500
C1681       C  0.94485446  0.35713546  0.96682527    -0.06200
Co1682     Co  0.52817846  0.06825858  0.49998443     0.74200
N1683       N  0.96987166  0.48284022  0.53288616    -0.25400
Co1684     Co  0.92840739  0.46260202  0.99702770     0.74100
C1685       C  0.92590568  0.33747829  0.99277373     0.43200
N1686       N  0.52875577  0.44646817  0.93039981     0.01600
N1687       N  0.93278625  0.40406135  0.99001632     0.01800
N1688       N  0.95604758  0.09684081  0.00756361    -0.46200
H1689       H  0.63081469  0.09812098  0.53070697     0.07500
N1690       N  0.00883665  0.02418350  0.53412431     0.02000
N1691       N  0.88811138  0.44598322  0.96233435     0.01800
C1692       C  0.83013173  0.43095258  0.93728266     0.43400
N1693       N  0.56702137  0.48811506  0.93114410    -0.24800
C1694       C  0.54605861  0.15173333  0.96747207    -0.05700
N1695       N  0.64597944  0.07149973  0.96941759    -0.45900
N1696       N  0.84755213  0.44322286  0.96198511    -0.46200
C1697       C  0.56394658  0.17157650  0.94148796     0.43200
N1698       N  0.96388369  0.06268689  0.00386222     0.02000
N1699       N  0.52114296  0.02570937  0.90043026    -0.24800
N1700       N  0.59208647  0.07266328  0.99402389    -0.25300
N1701       N  0.98300238  0.48381443  0.89918021     0.01700
H1702       H  0.56624929  0.07187577  0.86952887     0.07600
H1703       H  0.86281107  0.41447511  0.90138854     0.07600
N1704       N  0.92513294  0.02162321  0.00240276    -0.25400
N1705       N  0.94674339  0.39739326  0.96655782    -0.25000
N1706       N  0.55700148  0.10479603  0.94339547     0.02000
C1707       C  0.99323404  0.50357731  0.57628209     0.43400
C1708       C  0.60449691  0.48386387  0.92946729    -0.06300
N1709       N  0.89972738  0.43687526  0.93877226    -0.25000
H1710       H  0.95188459  0.34162629  0.94988111     0.07600
N1711       N  0.52316751  0.03763649  0.55921327    -0.46200
H1712       H  0.64067300  0.51186815  0.93015449     0.07600
C1713       C  0.99861823  0.00436660  0.85708001     0.43300
C1714       C  0.62849215  0.08616981  0.51043262    -0.05800
Co1715     Co  0.56256103  0.04681808  0.93608478     0.73800
N1716       N  0.53777721  0.41279004  0.92831331    -0.45900
C1717       C  0.90928334  0.07645493  0.00924031     0.43500
N1718       N  0.57030859  0.14065720  0.92756965    -0.45900
Co1719     Co  0.96360506  0.44032930  0.93354499     0.73900
C1720       C  0.86465804  0.42599687  0.92172523    -0.06300
C1721       C  0.95759031  0.46722262  0.55824668    -0.05800
N1722       N  0.54404535  0.11138694  0.96720098    -0.25400
N1723       N  0.91892260  0.36842311  0.50611918    -0.46100
H1724       H  0.85197828  0.99942692  0.00437805     0.07500
C1725       C  0.53342396  0.04132959  0.87509924    -0.06200
Cl1726     Cl  0.99571152  0.00443234  0.96668219    -0.49200
C1727       C  0.58479903  0.43414862  0.92721198     0.43300
H1728       H  0.54020456  0.16740319  0.98479017     0.07500
N1729       N  0.96908120  0.46998888  0.87408516    -0.45900
C1730       C  0.66682038  0.08007095  0.74090163     0.43100
N1731       N  0.60575833  0.06125833  0.71816299     0.02000
C1732       C  0.89501752  0.02889004  0.76133602    -0.05800
H1733       H  0.92952996  0.43508126  0.81408827     0.07500
C1734       C  0.93661295  0.35371231  0.71270267    -0.06200
Co1735     Co  0.53311848  0.06679761  0.75060182     0.74200
N1736       N  0.97499460  0.48038129  0.78305252    -0.25400
Co1737     Co  0.93097538  0.46218803  0.74868708     0.74100
C1738       C  0.92018510  0.33338828  0.73870471     0.43200
N1739       N  0.52141217  0.44415134  0.67698928     0.01600
N1740       N  0.93212319  0.40224734  0.73920381     0.01800
N1741       N  0.96340012  0.09786821  0.76225093    -0.46200
H1742       H  0.63539461  0.09261719  0.77874382     0.07500
N1743       N  0.01425069  0.02150758  0.78417803     0.02000
N1744       N  0.88715220  0.44680412  0.71595929     0.00200
C1745       C  0.82564533  0.42806712  0.69398026     0.43400
N1746       N  0.56140753  0.48425526  0.67802303    -0.24800
C1747       C  0.55579096  0.15433567  0.72033295    -0.05700
N1748       N  0.64815259  0.06795978  0.71648321    -0.45900
N1749       N  0.84481224  0.43990592  0.71820024    -0.46200
C1750       C  0.57304340  0.17476231  0.69436566     0.43200
N1751       N  0.96993069  0.06322438  0.75682756     0.02000
N1752       N  0.51807293  0.02735377  0.65044545    -0.24800
N1753       N  0.59532757  0.06857429  0.74254935    -0.25300
N1754       N  0.97825243  0.48670600  0.64939239     0.01700
H1755       H  0.56369760  0.07217199  0.61926791     0.07600
H1756       H  0.85606473  0.41588552  0.65555203     0.07600
N1757       N  0.93054362  0.02259189  0.75618092    -0.25400
N1758       N  0.94247050  0.39579082  0.71464849    -0.25000
N1759       N  0.56078288  0.10564395  0.69426878     0.02000
C1760       C  0.99904548  0.50051989  0.82626446     0.43400
C1761       C  0.59628022  0.47646831  0.67414163    -0.06300
N1762       N  0.89717822  0.44002431  0.69136532    -0.25000
H1763       H  0.93974321  0.33805962  0.69453775     0.07600
N1764       N  0.52897767  0.03462922  0.80923552    -0.46200
H1765       H  0.63322195  0.50232822  0.67489634     0.07600
C1766       C  0.49344900  0.00741242  0.60719884     0.43300
C1767       C  0.63218942  0.08113991  0.75831166    -0.05800
Co1768     Co  0.56193911  0.04546306  0.68509413     0.73800
N1769       N  0.52667638  0.40849776  0.67260178    -0.45900
C1770       C  0.91698743  0.07868064  0.76612505     0.43500
N1771       N  0.57595419  0.14285409  0.67921663    -0.45900
Co1772     Co  0.95897970  0.44140723  0.68298929     0.73900
C1773       C  0.85991596  0.42750603  0.67598572    -0.06300
C1774       C  0.96306907  0.46452333  0.80835065    -0.05800
N1775       N  0.54970927  0.11214015  0.71865428    -0.25400
N1776       N  0.91744147  0.36504669  0.75417540    -0.46100
H1777       H  0.85832988  0.00211634  0.76128959     0.07500
C1778       C  0.53002113  0.04301821  0.62508320    -0.06200
Cl1779     Cl  0.99630144  0.00405290  0.71682449    -0.49200
C1780       C  0.57290155  0.42638169  0.66979139     0.43300
H1781       H  0.55270241  0.17020016  0.73840969     0.07500
N1782       N  0.96322590  0.47369413  0.62435204    -0.45900
C1783       C  0.65806115  0.33709885  0.90553386     0.30700
C1784       C  0.65756070  0.34440278  0.95929863     0.30700
C1785       C  0.63821575  0.36640432  0.91747649    -0.05500
C1786       C  0.63103430  0.29130581  0.92045222    -0.06300
C1787       C  0.70727212  0.36248017  0.91833448    -0.06200
C1788       C  0.63808846  0.36993678  0.94495085    -0.05500
C1789       C  0.63163225  0.29564266  0.94756734    -0.06300
C1790       C  0.70608464  0.36639969  0.94586054    -0.06200
C1791       C  0.62088828  0.39798784  0.95169440    -0.31600
N1792       N  0.60967029  0.41067083  0.92906406     0.14900
C1793       C  0.62128253  0.39303780  0.90815659    -0.31600
H1794       H  0.61732297  0.39929661  0.88771739     0.16900
C1795       C  0.60751385  0.25211013  0.95789325    -0.30500
N1796       N  0.59163231  0.22073470  0.93769128     0.13700
C1797       C  0.60593163  0.24414779  0.91448648    -0.30500
C1798       C  0.75087609  0.39623871  0.95401924    -0.30800
N1799       N  0.78044752  0.40663971  0.93331075     0.14200
H1800       H  0.76170581  0.40996807  0.97390211     0.16800
C1801       C  0.75448517  0.38775957  0.91097846    -0.30800
H1802       H  0.76876481  0.39341805  0.89114216     0.16800
H1803       H  0.59869984  0.22822990  0.89494445     0.16800
H1804       H  0.61633578  0.40802352  0.97144851     0.16900
H1805       H  0.60223299  0.24402453  0.97876889     0.16800
C1806       C  0.66001347  0.34119857  0.65717381     0.30700
C1807       C  0.65050954  0.34816401  0.71028807     0.30700
C1808       C  0.63074989  0.36232027  0.66614777    -0.05500
C1809       C  0.63460912  0.29442611  0.67197096    -0.06300
C1810       C  0.70576852  0.37065906  0.67252544    -0.06200
C1811       C  0.62722011  0.36675187  0.69322605    -0.05500
C1812       C  0.63288756  0.29905639  0.69926556    -0.06300
C1813       C  0.70097395  0.37399151  0.69969288    -0.06200
C1814       C  0.60486209  0.39059705  0.69775759    -0.31600
N1815       N  0.59377305  0.39976185  0.67396327     0.14900
C1816       C  0.60840707  0.38210809  0.65454221    -0.31600
H1817       H  0.60419017  0.38497455  0.63359028     0.16900
C1818       C  0.61468902  0.25594383  0.70987595    -0.30500
N1819       N  0.59978252  0.22401497  0.69003201     0.13700
C1820       C  0.61097082  0.24689097  0.66663830    -0.30500
C1821       C  0.74514672  0.39545040  0.71013388    -0.30800
N1822       N  0.77640290  0.40628353  0.69007921     0.14200
H1823       H  0.75412568  0.40069799  0.73092218     0.16800
C1824       C  0.75286062  0.39108246  0.66690966    -0.30800
H1825       H  0.76851813  0.39293179  0.64769874     0.16800
H1826       H  0.60059671  0.23010510  0.64746930     0.16800
H1827       H  0.59809887  0.40136774  0.71677728     0.16900
H1828       H  0.61224754  0.24823594  0.73071459     0.16800
C1829       C  0.60754911  0.31017144  0.77955976    -0.11200
C1830       C  0.64457415  0.34560677  0.79390180     0.11400
C1831       C  0.67742392  0.38768271  0.78165122    -0.03000
C1832       C  0.67555020  0.38978478  0.75411463    -0.05700
C1833       C  0.64187422  0.35127728  0.73940154    -0.16500
C1834       C  0.60229969  0.31542287  0.75296131     0.02400
C1835       C  0.64535289  0.33841755  0.82208684     0.12400
C1836       C  0.71457695  0.42918345  0.79733663     0.63000
H1837       H  0.70108169  0.42087809  0.74391205     0.12400
C1838       C  0.55329751  0.28441394  0.74176831     0.55100
H1839       H  0.58131220  0.27893898  0.78950566     0.08200
C1840       C  0.60987454  0.33478328  0.83903163    -0.05600
C1841       C  0.61185168  0.32577144  0.86547311    -0.06300
C1842       C  0.65194423  0.32913487  0.87599219    -0.15900
C1843       C  0.68142383  0.32254182  0.85846502    -0.01500
C1844       C  0.67889567  0.32957823  0.83146968    -0.09100
C1845       C  0.57145489  0.34244279  0.82985637     0.65200
H1846       H  0.58317795  0.31913429  0.87850314     0.10700
C1847       C  0.71013635  0.30172106  0.86590334     0.63600
H1848       H  0.70215099  0.32669712  0.81749765     0.08000
F1849       F  0.52308912  0.29344942  0.75568140    -0.19500
F1850       F  0.53816348  0.23814294  0.74517466    -0.15700
F1851       F  0.54978217  0.29155347  0.71534032    -0.19200
F1852       F  0.74629206  0.41923665  0.80739261    -0.22600
F1853       F  0.69404425  0.43962799  0.81806621    -0.24000
F1854       F  0.73880218  0.46822080  0.78173561    -0.18000
F1855       F  0.69490214  0.26144194  0.85112832    -0.20500
F1856       F  0.70583347  0.28987338  0.89224352    -0.21700
F1857       F  0.75672311  0.33227240  0.85993326    -0.18800
F1858       F  0.54742382  0.34702030  0.85105576    -0.18900
F1859       F  0.53943724  0.30535658  0.81457654    -0.22800
F1860       F  0.59051389  0.38254757  0.81517852    -0.24400
C1861       C  0.61917406  0.33253370  0.53253586    -0.11200
C1862       C  0.66020517  0.34119055  0.54446464     0.11400
C1863       C  0.69788283  0.34649729  0.52914127    -0.03000
C1864       C  0.69288437  0.34323415  0.00189320    -0.05700
C1865       C  0.65542316  0.34246327  0.98927927    -0.16500
C1866       C  0.61502561  0.33127533  0.50494154     0.02400
C1867       C  0.66226702  0.34242316  0.57316962     0.12400
C1868       C  0.74319976  0.35536611  0.54118763     0.63000
H1869       H  0.71779933  0.33898314  0.99050804     0.12400
C1870       C  0.56586947  0.31411048  0.99495083     0.55100
H1871       H  0.58961742  0.32548193  0.54502553     0.08200
C1872       C  0.67195928  0.38257316  0.58751917    -0.05600
C1873       C  0.67732886  0.38270203  0.61476681    -0.06300
C1874       C  0.66901294  0.34273249  0.62781884    -0.15900
C1875       C  0.67016848  0.30767205  0.61276549    -0.01500
C1876       C  0.66134240  0.30542458  0.58573903    -0.09100
C1877       C  0.67596982  0.42455496  0.57432949     0.65200
H1878       H  0.68559159  0.41330922  0.62633555     0.10700
C1879       C  0.69053236  0.27960261  0.62227610     0.63600
H1880       H  0.65796731  0.27668969  0.57395520     0.08000
F1881       F  0.55416375  0.34678089  0.00107160    -0.19500
F1882       F  0.53446324  0.27334546  0.00771455    -0.15700
F1883       F  0.55977239  0.30435361  0.96819866    -0.19200
F1884       F  0.73599109  0.31551201  0.55281419    -0.22600
F1885       F  0.75931174  0.39058390  0.56003948    -0.24000
F1886       F  0.77802805  0.36872096  0.52219665    -0.18000
F1887       F  0.65831926  0.23262073  0.61949098    -0.20500
F1888       F  0.72903805  0.29005211  0.60673060    -0.21700
F1889       F  0.70571118  0.28964101  0.64816730    -0.18800
F1890       F  0.68597027  0.45970267  0.59247948    -0.18900
F1891       F  0.63425801  0.41216132  0.56233380    -0.22800
F1892       F  0.71122461  0.44186360  0.55545349    -0.24400
C1893       C  0.80982745  0.18573612  0.90477611    -0.11200
C1894       C  0.83423595  0.16997625  0.89033380     0.11400
C1895       C  0.86214726  0.15621584  0.90263332    -0.03000
C1896       C  0.86339947  0.15756485  0.93007105    -0.05700
C1897       C  0.83509660  0.16851765  0.94520955    -0.16500
C1898       C  0.81023003  0.18665404  0.93224035     0.02400
C1899       C  0.83190821  0.17095136  0.86201391     0.12400
C1900       C  0.89124749  0.14114536  0.88705540     0.63000
H1901       H  0.88901300  0.15321708  0.93938381     0.12400
C1902       C  0.78437661  0.20890452  0.94453350     0.55100
H1903       H  0.79064610  0.19814973  0.89426112     0.08200
C1904       C  0.79463522  0.13450143  0.84804378    -0.05600
C1905       C  0.79741131  0.13567554  0.82060857    -0.06300
C1906       C  0.83558161  0.17241242  0.80709664    -0.15900
C1907       C  0.87552685  0.20571607  0.82194053    -0.01500
C1908       C  0.87034713  0.20701441  0.84919558    -0.09100
C1909       C  0.75282776  0.09445321  0.86209191     0.65200
H1910       H  0.77096479  0.10589133  0.80981563     0.10700
C1911       C  0.92571489  0.23707317  0.81202170     0.63600
H1912       H  0.89894388  0.23370139  0.86098054     0.08000
F1913       F  0.73761794  0.18218679  0.93787743    -0.19500
F1914       F  0.80254601  0.25257415  0.93390982    -0.15700
F1915       F  0.78695477  0.21475941  0.97161903    -0.19200
F1916       F  0.92842828  0.17909584  0.87492963    -0.22600
F1917       F  0.86428819  0.10835522  0.86796378    -0.24000
F1918       F  0.90898119  0.12158275  0.90330387    -0.18000
F1919       F  0.93848733  0.28303231  0.81455179    -0.20500
F1920       F  0.93385830  0.22855369  0.78634266    -0.21700
F1921       F  0.95514976  0.23052778  0.82766804    -0.18800
F1922       F  0.72182989  0.06097969  0.84441465    -0.18900
F1923       F  0.72901749  0.11097555  0.87642139    -0.22800
F1924       F  0.76760223  0.07334214  0.87918696    -0.24400
C1925       C  0.81454302  0.17173582  0.65312759    -0.11200
C1926       C  0.83785229  0.15342940  0.63996701     0.11400
C1927       C  0.86623424  0.14157301  0.65342575    -0.03000
C1928       C  0.86823660  0.14661734  0.68083736    -0.05700
C1929       C  0.84053360  0.15983287  0.69483884    -0.16500
C1930       C  0.81529712  0.17600799  0.68042648     0.02400
C1931       C  0.83735412  0.15499555  0.61161438     0.12400
C1932       C  0.89463944  0.12449991  0.63897566     0.63000
H1933       H  0.89394027  0.14322288  0.69090971     0.12400
C1934       C  0.78972893  0.19987809  0.69080113     0.55100
H1935       H  0.79590732  0.18369182  0.64159759     0.08200
C1936       C  0.79814747  0.12276533  0.59703934    -0.05600
C1937       C  0.79856951  0.13049770  0.57015312    -0.06300
C1938       C  0.83626366  0.16951535  0.55773477    -0.15900
C1939       C  0.87823079  0.19792302  0.57247097    -0.01500
C1940       C  0.87551356  0.19294600  0.59974170    -0.09100
C1941       C  0.75657658  0.08030917  0.60965376     0.65200
H1942       H  0.77062078  0.10363818  0.55852843     0.10700
C1943       C  0.92784143  0.23012995  0.56185380     0.63600
H1944       H  0.90501852  0.21720001  0.61189463     0.08000
F1945       F  0.74387258  0.17479281  0.68229049    -0.19500
F1946       F  0.81101542  0.24378310  0.68005244    -0.15700
F1947       F  0.78857517  0.20533681  0.71780816    -0.19200
F1948       F  0.92874168  0.15927183  0.62339501    -0.22600
F1949       F  0.86569735  0.08665695  0.62304742    -0.24000
F1950       F  0.91654445  0.11103625  0.65645412    -0.18000
F1951       F  0.94146442  0.27577054  0.56706329    -0.20500
F1952       F  0.93376888  0.22472066  0.53526368    -0.21700
F1953       F  0.95828163  0.22129041  0.57487042    -0.18800
F1954       F  0.72231269  0.05346379  0.59127886    -0.18900
F1955       F  0.73645098  0.09365934  0.62912749    -0.22800
F1956       F  0.77110660  0.05304584  0.62081276    -0.24400
C1957       C  0.83405330  0.67031302  0.02819935     0.30700
C1958       C  0.83593177  0.66520058  0.47473914     0.30700
C1959       C  0.85669109  0.64443288  0.01640676    -0.05500
C1960       C  0.78537838  0.64514636  0.01457424    -0.06300
C1961       C  0.85906568  0.71741323  0.01413740    -0.06200
C1962       C  0.85754437  0.64099340  0.48897440    -0.05500
C1963       C  0.78757250  0.64097844  0.48735831    -0.06300
C1964       C  0.86176934  0.71365937  0.48703796    -0.06200
C1965       C  0.87464625  0.61222716  0.48339246    -0.31600
N1966       N  0.88607680  0.60117257  0.50652173     0.14900
C1967       C  0.87505290  0.62020363  0.02682141    -0.31600
H1968       H  0.87978402  0.61636553  0.04758418     0.16900
C1969       C  0.74328173  0.61615852  0.47781073    -0.30500
N1970       N  0.71312713  0.60755712  0.99803064     0.13700
C1971       C  0.73803421  0.62545790  0.02072056    -0.30500
C1972       C  0.88706650  0.75711732  0.47689882    -0.30800
N1973       N  0.89880693  0.78834140  0.99688392     0.14200
H1974       H  0.89502793  0.76516344  0.45613191     0.16800
C1975       C  0.88110179  0.76471911  0.01990486    -0.30800
H1976       H  0.88432321  0.78064538  0.03915740     0.16800
H1977       H  0.72284388  0.62448522  0.03995262     0.16800
H1978       H  0.87762756  0.59871771  0.46439740     0.16900
H1979       H  0.73369334  0.60658173  0.45726281     0.16800
C1980       C  0.83526622  0.66889369  0.27751038     0.30700
C1981       C  0.84063675  0.65956441  0.22450742     0.30700
C1982       C  0.86112848  0.64458887  0.26821223    -0.05500
C1983       C  0.78754618  0.64015204  0.26311416    -0.06300
C1984       C  0.85868609  0.71450548  0.26207147    -0.06200
C1985       C  0.86372349  0.63902691  0.24097228    -0.05500
C1986       C  0.79127110  0.63388357  0.23624878    -0.06300
C1987       C  0.86391356  0.70918542  0.23540685    -0.06200
C1988       C  0.88309052  0.61174866  0.23760008    -0.31600
N1989       N  0.89435793  0.60365831  0.26166295     0.14900
C1990       C  0.88075508  0.62297257  0.28059916    -0.31600
H1991       H  0.88405231  0.62064953  0.30173253     0.16900
C1992       C  0.74710718  0.60832071  0.22599646    -0.30500
N1993       N  0.71600536  0.60133592  0.24542416     0.13700
C1994       C  0.74001974  0.62103619  0.26818911    -0.30500
C1995       C  0.88803615  0.75237567  0.22445643    -0.30800
N1996       N  0.89594703  0.78437963  0.24349890     0.14200
H1997       H  0.89776522  0.75960882  0.20378736     0.16800
C1998       C  0.87734655  0.76169336  0.26664501    -0.30800
H1999       H  0.87750685  0.77818967  0.28523348     0.16800
H2000       H  0.72415991  0.62275884  0.28665991     0.16800
H2001       H  0.88713141  0.59650727  0.21954996     0.16900
H2002       H  0.73834470  0.59808140  0.20543728     0.16800
C2003       C  0.66383292  0.58455102  0.99386713     0.43100
N2004       N  0.60378118  0.56492545  0.47011627     0.02000
C2005       C  0.88840184  0.52681191  0.50513714    -0.05800
H2006       H  0.92445448  0.93711374  0.06387168     0.07500
C2007       C  0.94485487  0.85713584  0.46682569    -0.06200
Co2008     Co  0.52817934  0.56825839  0.99998439     0.74200
N2009       N  0.96987210  0.98283987  0.03288600    -0.25400
Co2010     Co  0.92840688  0.96260190  0.49702786     0.74100
C2011       C  0.92590616  0.83747869  0.49277415     0.43200
N2012       N  0.52875554  0.94646827  0.43040013     0.01600
N2013       N  0.93278626  0.90406154  0.49001660     0.01800
N2014       N  0.95604609  0.59684051  0.50756308    -0.46200
H2015       H  0.63081531  0.59811964  0.03070671     0.07500
N2016       N  0.00883731  0.52418300  0.03412417     0.02000
N2017       N  0.88811078  0.94598260  0.46233450     0.01800
C2018       C  0.83013090  0.93095137  0.43728284     0.43400
N2019       N  0.56702112  0.98811511  0.43114450    -0.24800
C2020       C  0.54605723  0.65173292  0.46747175    -0.05700
N2021       N  0.64597867  0.57149974  0.46941794    -0.45900
N2022       N  0.84755126  0.94322173  0.46198531    -0.46200
C2023       C  0.56394543  0.67157604  0.44148765     0.43200
N2024       N  0.96388254  0.56268674  0.50386204     0.02000
N2025       N  0.52114274  0.52570922  0.40043025    -0.24800
N2026       N  0.59208566  0.57266359  0.49402402    -0.25300
N2027       N  0.98300217  0.98381425  0.39918024     0.01700
H2028       H  0.56624937  0.57187574  0.36952890     0.07600
H2029       H  0.86281047  0.91447423  0.40138875     0.07600
N2030       N  0.92513195  0.52162290  0.50240269    -0.25400
N2031       N  0.94674343  0.89739345  0.46655811    -0.25000
N2032       N  0.55700072  0.60479577  0.44339542     0.02000
C2033       C  0.99323422  0.00357674  0.07628194     0.43400
C2034       C  0.60449670  0.98386392  0.42946784    -0.06300
N2035       N  0.89972692  0.93687483  0.43877241    -0.25000
H2036       H  0.95188515  0.84162666  0.44988153     0.07600
N2037       N  0.52316816  0.53763590  0.05921314    -0.46200
H2038       H  0.64067261  0.01186803  0.43015512     0.07600
C2039       C  0.99861835  0.50436665  0.35707997     0.43300
C2040       C  0.62849274  0.58616885  0.01043239    -0.05800
Co2041     Co  0.56256054  0.54681796  0.43608488     0.73800
N2042       N  0.53777693  0.91279010  0.42831367    -0.45900
C2043       C  0.90928179  0.57645433  0.50923967     0.43500
N2044       N  0.57030777  0.64065682  0.42756951    -0.45900
Co2045     Co  0.96360484  0.94032928  0.43354518     0.73900
C2046       C  0.86465742  0.92599604  0.42172540    -0.06300
C2047       C  0.95759048  0.96722225  0.05824648    -0.05800
N2048       N  0.54404429  0.61138668  0.46720083    -0.25400
N2049       N  0.91892217  0.86842274  0.00611894    -0.46100
H2050       H  0.85197710  0.49942608  0.50437771     0.07500
C2051       C  0.53342388  0.54132943  0.37509924    -0.06200
Cl2052     Cl  0.99571103  0.50443243  0.46668228    -0.49200
C2053       C  0.58479872  0.93414865  0.42721253     0.43300
H2054       H  0.54020298  0.66740274  0.48478971     0.07500
N2055       N  0.96908117  0.96998868  0.37408517    -0.45900
C2056       C  0.66682027  0.58007163  0.24090144     0.43100
N2057       N  0.60575808  0.56125847  0.21816284     0.02000
C2058       C  0.89501730  0.52889021  0.26133587    -0.05800
H2059       H  0.92953039  0.93508130  0.31408813     0.07500
C2060       C  0.93661292  0.85371237  0.21270262    -0.06200
Co2061     Co  0.53311819  0.56679770  0.25060159     0.74200
N2062       N  0.97499454  0.98038138  0.28305243    -0.25400
Co2063     Co  0.93097521  0.96218799  0.24868700     0.74100
C2064       C  0.92018521  0.83338845  0.23870470     0.43200
N2065       N  0.52141188  0.94415124  0.17698923     0.01600
N2066       N  0.93212320  0.90224743  0.23920375     0.01800
N2067       N  0.96339992  0.59786837  0.26225063    -0.46200
H2068       H  0.63539442  0.59261785  0.27874347     0.07500
N2069       N  0.01425054  0.52150779  0.28417793     0.02000
N2070       N  0.88715199  0.94680394  0.21595926     0.00200
C2071       C  0.82564503  0.92806684  0.19398030     0.43400
N2072       N  0.56140726  0.98425514  0.17802295    -0.24800
C2073       C  0.55579042  0.65433546  0.22033247    -0.05700
N2074       N  0.64815246  0.56796021  0.21648305    -0.45900
N2075       N  0.84481199  0.93990568  0.21820026    -0.46200
C2076       C  0.57304295  0.67476206  0.19436518     0.43200
N2077       N  0.96993046  0.56322451  0.25682732     0.02000
N2078       N  0.51807285  0.52735349  0.15044526    -0.24800
N2079       N  0.59532729  0.56857448  0.24254917    -0.25300
N2080       N  0.97825207  0.98670564  0.14939221     0.01700
H2081       H  0.56369780  0.57217149  0.11926774     0.07600
H2082       H  0.85606440  0.91588530  0.15555208     0.07600
N2083       N  0.93054339  0.52259203  0.25618077    -0.25400
N2084       N  0.94247041  0.89579087  0.21464845    -0.25000
N2085       N  0.56078256  0.60564377  0.19426844     0.02000
C2086       C  0.99904549  0.00051985  0.32626440     0.43400
C2087       C  0.59627994  0.97646817  0.17414158    -0.06300
N2088       N  0.89717796  0.94002415  0.19136528    -0.25000
H2089       H  0.93974305  0.83805974  0.19453782     0.07600
N2090       N  0.52897754  0.53462934  0.30923540    -0.46200
H2091       H  0.63322169  0.00232809  0.17489621     0.07600
C2092       C  0.49344922  0.50741193  0.10719865     0.43300
C2093       C  0.63218925  0.58114047  0.25831149    -0.05800
Co2094     Co  0.56193890  0.54546295  0.18509397     0.73800
N2095       N  0.52667607  0.90849762  0.17260183    -0.45900
C2096       C  0.91698725  0.57868084  0.26612480     0.43500
N2097       N  0.57595384  0.64285383  0.17921623    -0.45900
Co2098     Co  0.95897943  0.94140706  0.18298920     0.73900
C2099       C  0.85991566  0.92750580  0.17598571    -0.06300
C2100       C  0.96306908  0.96452323  0.30835057    -0.05800
N2101       N  0.54970888  0.61214004  0.21865392    -0.25400
N2102       N  0.91744158  0.86504684  0.25417538    -0.46100
H2103       H  0.85832966  0.50211651  0.26128951     0.07500
C2104       C  0.53002125  0.54301778  0.12508301    -0.06200
Cl2105     Cl  0.99630124  0.50405295  0.21682436    -0.49200
C2106       C  0.57290123  0.92638154  0.16979144     0.43300
H2107       H  0.55270183  0.67020006  0.23840927     0.07500
N2108       N  0.96322566  0.97369368  0.12435186    -0.45900
C2109       C  0.65806022  0.83709859  0.40553390     0.30700
C2110       C  0.65755981  0.84440209  0.45929872     0.30700
C2111       C  0.63821487  0.86640397  0.41747669    -0.05500
C2112       C  0.63103336  0.79130543  0.42045215    -0.06300
C2113       C  0.70727122  0.86247975  0.41833453    -0.06200
C2114       C  0.63808750  0.86993612  0.44495108    -0.05500
C2115       C  0.63163143  0.79564209  0.44756730    -0.06300
C2116       C  0.70608376  0.86639912  0.44586061    -0.06200
C2117       C  0.62088754  0.89798730  0.45169478    -0.31600
N2118       N  0.60966988  0.91067075  0.42906447     0.14900
C2119       C  0.62128203  0.89303784  0.40815696    -0.31600
H2120       H  0.61732266  0.89929711  0.38771756     0.16900
C2121       C  0.60751305  0.75210952  0.45789311    -0.30500
N2122       N  0.59163133  0.72073424  0.43769105     0.13700
C2123       C  0.60593055  0.74414748  0.41448631    -0.30500
C2124       C  0.75087526  0.89623781  0.45401930    -0.30800
N2125       N  0.78044669  0.90663869  0.43331090     0.14200
H2126       H  0.76170513  0.90996718  0.47390243     0.16800
C2127       C  0.75448434  0.88775876  0.41097850    -0.30800
H2128       H  0.76876381  0.89341690  0.39114247     0.16800
H2129       H  0.59869856  0.72822965  0.39494415     0.16800
H2130       H  0.61633514  0.90802282  0.47144882     0.16900
H2131       H  0.60223228  0.74402377  0.47876874     0.16800
C2132       C  0.66001333  0.84119867  0.15717374     0.30700
C2133       C  0.65050911  0.84816360  0.21028798     0.30700
C2134       C  0.63074974  0.86232032  0.16614775    -0.05500
C2135       C  0.63460881  0.79442603  0.17197070    -0.06300
C2136       C  0.70576829  0.87065891  0.17252545    -0.06200
C2137       C  0.62721983  0.86675169  0.19322602    -0.05500
C2138       C  0.63288705  0.79905607  0.19926532    -0.06300
C2139       C  0.70097359  0.87399108  0.19969288    -0.06200
C2140       C  0.60486171  0.89059678  0.19775762    -0.31600
N2141       N  0.59377275  0.89976171  0.17396331     0.14900
C2142       C  0.60840684  0.88210808  0.15454223    -0.31600
H2143       H  0.60418989  0.88497457  0.13359031     0.16900
C2144       C  0.61468853  0.75594345  0.20987557    -0.30500
N2145       N  0.59978222  0.72401474  0.19003157     0.13700
C2146       C  0.61097072  0.74689091  0.16663789    -0.30500
C2147       C  0.74514633  0.89544988  0.21013393    -0.30800
N2148       N  0.77640259  0.90628317  0.19007927     0.14200
H2149       H  0.75412522  0.90069737  0.23092223     0.16800
C2150       C  0.75286038  0.89108233  0.16690970    -0.30800
H2151       H  0.76851799  0.89293185  0.14769870     0.16800
H2152       H  0.60059711  0.73010527  0.14746889     0.16800
H2153       H  0.59809839  0.90136727  0.21677728     0.16900
H2154       H  0.61224706  0.74823545  0.23071418     0.16800
C2155       C  0.60754866  0.81017149  0.27955980    -0.11200
C2156       C  0.64457355  0.84560718  0.29390178     0.11400
C2157       C  0.67742322  0.88768298  0.28165106    -0.03000
C2158       C  0.67554961  0.88978463  0.25411444    -0.05700
C2159       C  0.64187381  0.85127684  0.23940145    -0.16500
C2160       C  0.60229933  0.81542251  0.25296127     0.02400
C2161       C  0.64535234  0.83841826  0.32208685     0.12400
C2162       C  0.71457603  0.92918407  0.29733634     0.63000
H2163       H  0.70108103  0.92087784  0.24391176     0.12400
C2164       C  0.55329717  0.78441338  0.24176829     0.55100
H2165       H  0.58131191  0.77893932  0.28950575     0.08200
C2166       C  0.60987407  0.83478418  0.33903160    -0.05600
C2167       C  0.61185100  0.82577213  0.36547310    -0.06300
C2168       C  0.65194331  0.82913494  0.37599218    -0.15900
C2169       C  0.68142263  0.82254156  0.35846498    -0.01500
C2170       C  0.67889475  0.82957838  0.33146966    -0.09100
C2171       C  0.57145450  0.84244377  0.32985626     0.65200
H2172       H  0.58317746  0.81913510  0.37850299     0.10700
C2173       C  0.71013452  0.80172004  0.36590319     0.63600
H2174       H  0.70214985  0.82669703  0.31749764     0.08000
F2175       F  0.52308860  0.79344851  0.25568145    -0.19500
F2176       F  0.53816346  0.73814245  0.24517457    -0.15700
F2177       F  0.54978173  0.79155300  0.21534031    -0.19200
F2178       F  0.74629097  0.91923749  0.30739284    -0.22600
F2179       F  0.69404304  0.93962909  0.31806554    -0.24000
F2180       F  0.73880152  0.96822106  0.28173505    -0.18000
F2181       F  0.69489924  0.76144057  0.35112832    -0.20500
F2182       F  0.70583200  0.78987272  0.39224341    -0.21700
F2183       F  0.75672131  0.83227065  0.35993280    -0.18800
F2184       F  0.54742327  0.84702119  0.35105559    -0.18900
F2185       F  0.53943700  0.80535766  0.31457632    -0.22800
F2186       F  0.59051361  0.88254862  0.31517846    -0.24400
C2187       C  0.61917476  0.83253427  0.03253591    -0.11200
C2188       C  0.66020604  0.84119151  0.04446466     0.11400
C2189       C  0.69788377  0.84649838  0.02914130    -0.03000
C2190       C  0.69288342  0.84323331  0.50189331    -0.05700
C2191       C  0.65542225  0.84246245  0.48927939    -0.16500
C2192       C  0.61502629  0.83127588  0.00494160     0.02400
C2193       C  0.66226783  0.84242409  0.07316962     0.12400
C2194       C  0.74320091  0.85536777  0.04118767     0.63000
H2195       H  0.71779842  0.83898218  0.49050807     0.12400
C2196       C  0.56586855  0.81410962  0.49495102     0.55100
H2197       H  0.58961819  0.82548231  0.04502555     0.08200
C2198       C  0.67195923  0.88257373  0.08751923    -0.05600
C2199       C  0.67732869  0.88270249  0.11476687    -0.06300
C2200       C  0.66901305  0.84273297  0.12781882    -0.15900
C2201       C  0.67016943  0.80767304  0.11276546    -0.01500
C2202       C  0.66134375  0.80542571  0.08573896    -0.09100
C2203       C  0.67596881  0.92455521  0.07432968     0.65200
H2204       H  0.68559105  0.91330946  0.12633564     0.10700
C2205       C  0.69053353  0.77960386  0.12227616     0.63600
H2206       H  0.65796920  0.77669127  0.07395517     0.08000
F2207       F  0.55416285  0.84678014  0.50107144    -0.19500
F2208       F  0.53446237  0.77334493  0.50771504    -0.15700
F2209       F  0.55977135  0.80435213  0.46819891    -0.19200
F2210       F  0.73599274  0.81551398  0.05281437    -0.22600
F2211       F  0.75931267  0.89058574  0.06003939    -0.24000
F2212       F  0.77802915  0.86872269  0.02219665    -0.18000
F2213       F  0.65832087  0.73262196  0.11949064    -0.20500
F2214       F  0.72903981  0.79005415  0.10673099    -0.21700
F2215       F  0.70571155  0.78964175  0.14816751    -0.18800
F2216       F  0.68596843  0.95970258  0.09247976    -0.18900
F2217       F  0.63425681  0.91216081  0.06233397    -0.22800
F2218       F  0.71122368  0.94186465  0.05545372    -0.24400
C2219       C  0.80982712  0.68573586  0.40477585    -0.11200
C2220       C  0.83423617  0.66997629  0.39033380     0.11400
C2221       C  0.86214824  0.65621710  0.40263366    -0.03000
C2222       C  0.86340007  0.65756641  0.43007138    -0.05700
C2223       C  0.83509631  0.66851838  0.44520961    -0.16500
C2224       C  0.81022968  0.68665439  0.43224011     0.02400
C2225       C  0.83190861  0.67095099  0.36201385     0.12400
C2226       C  0.89124960  0.64114760  0.38705611     0.63000
H2227       H  0.88901428  0.65321957  0.43938451     0.12400
C2228       C  0.78437638  0.70890519  0.44453296     0.55100
H2229       H  0.79064547  0.69814897  0.39426063     0.08200
C2230       C  0.79463566  0.63450108  0.34804371    -0.05600
C2231       C  0.79741134  0.63567551  0.32060845    -0.06300
C2232       C  0.83558156  0.67241256  0.30709653    -0.15900
C2233       C  0.87552690  0.70571600  0.32194040    -0.01500
C2234       C  0.87034739  0.70701418  0.34919548    -0.09100
C2235       C  0.75282864  0.59445241  0.36209184     0.65200
H2236       H  0.77096496  0.60589175  0.30981559     0.10700
C2237       C  0.92571489  0.73707318  0.31202151     0.63600
H2238       H  0.89894398  0.73370109  0.36098035     0.08000
F2239       F  0.73761762  0.68218728  0.43787709    -0.19500
F2240       F  0.80254562  0.75257450  0.43390886    -0.15700
F2241       F  0.78695498  0.71476087  0.47161845    -0.19200
F2242       F  0.92842988  0.67909841  0.37493024    -0.22600
F2243       F  0.86429103  0.60835680  0.36796461    -0.24000
F2244       F  0.90898419  0.62158626  0.40330491    -0.18000
F2245       F  0.93848740  0.78303231  0.31455178    -0.20500
F2246       F  0.93385815  0.72855393  0.28634240    -0.21700
F2247       F  0.95514983  0.73052760  0.32766764    -0.18800
F2248       F  0.72183068  0.56097896  0.34441458    -0.18900
F2249       F  0.72901820  0.61097408  0.37642176    -0.22800
F2250       F  0.76760385  0.57334146  0.37918648    -0.24400
C2251       C  0.81454354  0.67173700  0.15312741    -0.11200
C2252       C  0.83785284  0.65343065  0.13996684     0.11400
C2253       C  0.86623470  0.64157413  0.15342558    -0.03000
C2254       C  0.86823676  0.64661811  0.18083720    -0.05700
C2255       C  0.84053360  0.65983345  0.19483868    -0.16500
C2256       C  0.81529731  0.67600879  0.18042632     0.02400
C2257       C  0.83735450  0.65499657  0.11161423     0.12400
C2258       C  0.89463997  0.62450114  0.13897546     0.63000
H2259       H  0.89394029  0.64322346  0.19090959     0.12400
C2260       C  0.78972889  0.69987863  0.19080099     0.55100
H2261       H  0.79590792  0.68369313  0.14159741     0.08200
C2262       C  0.79814783  0.62276611  0.09703931    -0.05600
C2263       C  0.79856989  0.63049786  0.07015302    -0.06300
C2264       C  0.83626400  0.66951537  0.05773454    -0.15900
C2265       C  0.87823108  0.69792349  0.07247065    -0.01500
C2266       C  0.87551393  0.69294685  0.09974141    -0.09100
C2267       C  0.75657684  0.58031026  0.10965391     0.65200
H2268       H  0.77062149  0.60363822  0.05852853     0.10700
C2269       C  0.92784163  0.73013077  0.06185344     0.63600
H2270       H  0.90501886  0.71720103  0.11189425     0.08000
F2271       F  0.74387256  0.67479314  0.18229033    -0.19500
F2272       F  0.81101511  0.74378363  0.18005231    -0.15700
F2273       F  0.78857513  0.70533732  0.21780802    -0.19200
F2274       F  0.92874206  0.65927303  0.12339474    -0.22600
F2275       F  0.86569789  0.58665804  0.12304730    -0.24000
F2276       F  0.91654522  0.61103773  0.15645390    -0.18000
F2277       F  0.94146438  0.77577122  0.06706321    -0.20500
F2278       F  0.93376911  0.72472201  0.03526325    -0.21700
F2279       F  0.95828200  0.72129121  0.07486984    -0.18800
F2280       F  0.72231301  0.55346444  0.09127906    -0.18900
F2281       F  0.73645120  0.59366098  0.12912732    -0.22800
F2282       F  0.77110679  0.55304720  0.12081335    -0.24400
C2283       C  0.83405280  0.67031329  0.52819949     0.30700
C2284       C  0.83593241  0.66519995  0.97473905     0.30700
C2285       C  0.85668973  0.64443242  0.51640675    -0.05500
C2286       C  0.78537788  0.64514757  0.51457440    -0.06300
C2287       C  0.85906596  0.71741364  0.51413763    -0.06200
C2288       C  0.85754585  0.64099367  0.98897441    -0.05500
C2289       C  0.78757310  0.64097700  0.98735818    -0.06300
C2290       C  0.86176931  0.71365886  0.98703776    -0.06200
C2291       C  0.87464817  0.61222777  0.98339266    -0.31600
N2292       N  0.88607885  0.60117360  0.00652200     0.14900
C2293       C  0.87505116  0.62020269  0.52682122    -0.31600
H2294       H  0.87978252  0.61636452  0.54758407     0.16900
C2295       C  0.74328235  0.61615695  0.97781057    -0.30500
N2296       N  0.71312657  0.60755852  0.49803092     0.13700
C2297       C  0.73803373  0.62545910  0.52072079    -0.30500
C2298       C  0.88706626  0.75711678  0.97689862    -0.30800
N2299       N  0.89880762  0.78834189  0.49688427     0.14200
H2300       H  0.89502820  0.76516298  0.95613141     0.16800
C2301       C  0.88110257  0.76471953  0.51990514    -0.30800
H2302       H  0.88432423  0.78064593  0.53915790     0.16800
H2303       H  0.72284337  0.62448594  0.53995303     0.16800
H2304       H  0.87762946  0.59871795  0.96439762     0.16900
H2305       H  0.73369398  0.60658030  0.95726244     0.16800
C2306       C  0.83526648  0.66889352  0.77751048     0.30700
C2307       C  0.84063687  0.65956401  0.72450754     0.30700
C2308       C  0.86112889  0.64458885  0.76821236    -0.05500
C2309       C  0.78754643  0.64015164  0.76311431    -0.06300
C2310       C  0.85868622  0.71450526  0.76207151    -0.06200
C2311       C  0.86372388  0.63902679  0.74097241    -0.05500
C2312       C  0.79127127  0.63388302  0.73624896    -0.06300
C2313       C  0.86391359  0.70918511  0.73540687    -0.06200
C2314       C  0.88309105  0.61174866  0.73760028    -0.31600
N2315       N  0.89435849  0.60365843  0.76166317     0.14900
C2316       C  0.88075555  0.62297267  0.78059934    -0.31600
H2317       H  0.88405269  0.62064963  0.80173269     0.16900
C2318       C  0.74710730  0.60831995  0.72599672    -0.30500
N2319       N  0.71600552  0.60133523  0.74542437     0.13700
C2320       C  0.74001995  0.62103573  0.76818933    -0.30500
C2321       C  0.88803609  0.75237535  0.72445641    -0.30800
N2322       N  0.89594701  0.78437939  0.74349887     0.14200
H2323       H  0.89776512  0.75960847  0.70378735     0.16800
C2324       C  0.87734665  0.76169314  0.76664499    -0.30800
H2325       H  0.87750698  0.77818958  0.78523356     0.16800
H2326       H  0.72416034  0.62275854  0.78665988     0.16800
H2327       H  0.88713195  0.59650712  0.71955011     0.16900
H2328       H  0.73834474  0.59808047  0.70543743     0.16800
C2329       C  0.66383230  0.58455170  0.49386750     0.43100
N2330       N  0.60378188  0.56492540  0.97011600     0.02000
C2331       C  0.88840312  0.52681262  0.00513732    -0.05800
H2332       H  0.92445462  0.93711379  0.56387193     0.07500
C2333       C  0.94485428  0.85713535  0.96682535    -0.06200
Co2334     Co  0.52817838  0.56825846  0.49998439     0.74200
N2335       N  0.96987175  0.98284025  0.53288619    -0.25400
Co2336     Co  0.92840728  0.96260196  0.99702770     0.74100
C2337       C  0.92590542  0.83747819  0.99277380     0.43200
N2338       N  0.52875578  0.94646822  0.93039994     0.01600
N2339       N  0.93278607  0.90406127  0.99001635     0.01800
N2340       N  0.95604768  0.59684092  0.00756355    -0.46200
H2341       H  0.63081455  0.59812086  0.53070698     0.07500
N2342       N  0.00883660  0.52418342  0.53412427     0.02000
N2343       N  0.88811123  0.94598313  0.96233435     0.01800
C2344       C  0.83013154  0.93095239  0.93728266     0.43400
N2345       N  0.56702136  0.98811506  0.93114420    -0.24800
C2346       C  0.54605840  0.65173326  0.96747203    -0.05700
N2347       N  0.64597935  0.57149957  0.96941753    -0.45900
N2348       N  0.84755195  0.94322270  0.96198512    -0.46200
C2349       C  0.56394624  0.67157635  0.94148786     0.43200
N2350       N  0.96388377  0.56268695  0.00386222     0.02000
N2351       N  0.52114288  0.52570939  0.90043023    -0.24800
N2352       N  0.59208644  0.57266325  0.99402382    -0.25300
N2353       N  0.98300230  0.98381430  0.89918021     0.01700
H2354       H  0.56624918  0.57187581  0.86952884     0.07600
H2355       H  0.86281082  0.91447483  0.90138858     0.07600
N2356       N  0.92513306  0.52162331  0.00240273    -0.25400
N2357       N  0.94674322  0.89739315  0.96655786    -0.25000
N2358       N  0.55700141  0.60479600  0.94339545     0.02000
C2359       C  0.99323402  0.00357732  0.57628211     0.43400
C2360       C  0.60449695  0.98386388  0.92946744    -0.06300
N2361       N  0.89972723  0.93687515  0.93877226    -0.25000
H2362       H  0.95188446  0.84162616  0.94988118     0.07600
N2363       N  0.52316752  0.53763638  0.55921324    -0.46200
H2364       H  0.64067282  0.01186797  0.93015464     0.07600
C2365       C  0.99861825  0.50436674  0.85708000     0.43300
C2366       C  0.62849199  0.58616961  0.51043260    -0.05800
Co2367     Co  0.56256098  0.54681806  0.93608472     0.73800
N2368       N  0.53777719  0.91279004  0.92831351    -0.45900
C2369       C  0.90928345  0.57645505  0.00924018     0.43500
N2370       N  0.57030832  0.64065711  0.92756957    -0.45900
Co2371     Co  0.96360494  0.94032921  0.93354503     0.73900
C2372       C  0.86465785  0.92599669  0.92172524    -0.06300
C2373       C  0.95759040  0.96722261  0.55824668    -0.05800
N2374       N  0.54404532  0.61138692  0.96720094    -0.25400
N2375       N  0.91892266  0.86842314  0.50611925    -0.46100
H2376       H  0.85197860  0.49942722  0.00437785     0.07500
C2377       C  0.53342385  0.54132964  0.87509921    -0.06200
Cl2378     Cl  0.99571163  0.50443239  0.96668219    -0.49200
C2379       C  0.58479899  0.93414862  0.92721222     0.43300
H2380       H  0.54020436  0.66740299  0.98479000     0.07500
N2381       N  0.96908112  0.96998876  0.87408518    -0.45900
C2382       C  0.66682042  0.58007104  0.74090169     0.43100
N2383       N  0.60575838  0.56125840  0.71816302     0.02000
C2384       C  0.89501771  0.52889030  0.76133612    -0.05800
H2385       H  0.92953021  0.93508130  0.81408821     0.07500
C2386       C  0.93661296  0.85371224  0.71270259    -0.06200
Co2387     Co  0.53311851  0.56679766  0.75060180     0.74200
N2388       N  0.97499461  0.98038125  0.78305250    -0.25400
Co2389     Co  0.93097538  0.96218792  0.74868706     0.74100
C2390       C  0.92018514  0.83338822  0.73870463     0.43200
N2391       N  0.52141210  0.94415131  0.67698925     0.01600
N2392       N  0.93212334  0.90224731  0.73920378     0.01800
N2393       N  0.96340039  0.59786840  0.76225093    -0.46200
H2394       H  0.63539461  0.59261730  0.77874387     0.07500
N2395       N  0.01425078  0.52150763  0.78417803     0.02000
N2396       N  0.88715218  0.94680392  0.71595930     0.00200
C2397       C  0.82564525  0.92806687  0.69398034     0.43400
N2398       N  0.56140743  0.98425521  0.67802298    -0.24800
C2399       C  0.55579097  0.65433571  0.72033291    -0.05700
N2400       N  0.64815264  0.56795985  0.71648326    -0.45900
N2401       N  0.84481221  0.93990568  0.71820029    -0.46200
C2402       C  0.57304336  0.67476232  0.69436561     0.43200
N2403       N  0.96993086  0.56322451  0.75682757     0.02000
N2404       N  0.51807300  0.52735378  0.65044544    -0.24800
N2405       N  0.59532761  0.56857436  0.74254938    -0.25300
N2406       N  0.97825231  0.98670592  0.64939237     0.01700
H2407       H  0.56369785  0.57217208  0.61926788     0.07600
H2408       H  0.85606466  0.91588543  0.65555210     0.07600
N2409       N  0.93054374  0.52259206  0.75618097    -0.25400
N2410       N  0.94247059  0.89579080  0.71464845    -0.25000
N2411       N  0.56078293  0.60564400  0.69426876     0.02000
C2412       C  0.99904542  0.00051981  0.82626446     0.43400
C2413       C  0.59628015  0.97646828  0.67414154    -0.06300
N2414       N  0.89717817  0.94002416  0.69136533    -0.25000
H2415       H  0.93974310  0.83805956  0.69453770     0.07600
N2416       N  0.52897760  0.53462927  0.80923549    -0.46200
H2417       H  0.63322169  0.00232806  0.67489620     0.07600
C2418       C  0.49344907  0.50741236  0.60719882     0.43300
C2419       C  0.63218945  0.58114001  0.75831171    -0.05800
Co2420     Co  0.56193916  0.54546310  0.68509414     0.73800
N2421       N  0.52667629  0.90849771  0.67260177    -0.45900
C2422       C  0.91698773  0.57868092  0.76612510     0.43500
N2423       N  0.57595418  0.64285412  0.67921659    -0.45900
Co2424     Co  0.95897966  0.94140715  0.68298926     0.73900
C2425       C  0.85991588  0.92750584  0.67598574    -0.06300
C2426       C  0.96306904  0.96452319  0.80835064    -0.05800
N2427       N  0.54970936  0.61214022  0.71865426    -0.25400
N2428       N  0.91744157  0.86504664  0.75417534    -0.46100
H2429       H  0.85833004  0.50211663  0.76128976     0.07500
C2430       C  0.53002118  0.54301815  0.62508319    -0.06200
Cl2431     Cl  0.99630149  0.50405298  0.71682450    -0.49200
C2432       C  0.57290144  0.92638163  0.66979135     0.43300
H2433       H  0.55270241  0.67020019  0.73840962     0.07500
N2434       N  0.96322580  0.97369407  0.62435203    -0.45900
C2435       C  0.65806092  0.83709881  0.90553388     0.30700
C2436       C  0.65756052  0.84440258  0.95929866     0.30700
C2437       C  0.63821560  0.86640430  0.91747656    -0.05500
C2438       C  0.63103399  0.79130571  0.92045219    -0.06300
C2439       C  0.70727190  0.86248002  0.91833448    -0.06200
C2440       C  0.63808831  0.86993665  0.94495094    -0.05500
C2441       C  0.63163200  0.79564249  0.94756733    -0.06300
C2442       C  0.70608445  0.86639946  0.94586055    -0.06200
C2443       C  0.62088816  0.89798770  0.95169455    -0.31600
N2444       N  0.60967026  0.91067083  0.92906422     0.14900
C2445       C  0.62128248  0.89303788  0.90815674    -0.31600
H2446       H  0.61732288  0.89929683  0.88771733     0.16900
C2447       C  0.60751354  0.75210996  0.95789316    -0.30500
N2448       N  0.59163192  0.72073458  0.93769120     0.13700
C2449       C  0.60593120  0.74414773  0.91448641    -0.30500
C2450       C  0.75087591  0.89623852  0.95401923    -0.30800
N2451       N  0.78044733  0.90663955  0.93331074     0.14200
H2452       H  0.76170565  0.90996791  0.97390209     0.16800
C2453       C  0.75448495  0.88775946  0.91097844    -0.30800
H2454       H  0.76876455  0.89341799  0.89114213     0.16800
H2455       H  0.59869933  0.72822982  0.89494428     0.16800
H2456       H  0.61633563  0.90802326  0.97144865     0.16900
H2457       H  0.60223269  0.74402422  0.97876902     0.16800
C2458       C  0.66001345  0.84119863  0.65717387     0.30700
C2459       C  0.65050944  0.84816400  0.71028812     0.30700
C2460       C  0.63074986  0.86232031  0.66614780    -0.05500
C2461       C  0.63460906  0.79442615  0.67197098    -0.06300
C2462       C  0.70576848  0.87065908  0.67252551    -0.06200
C2463       C  0.62722002  0.86675186  0.69322608    -0.05500
C2464       C  0.63288750  0.79905640  0.69926558    -0.06300
C2465       C  0.70097387  0.87399154  0.69969294    -0.06200
C2466       C  0.60486199  0.89059704  0.69775761    -0.31600
N2467       N  0.59377299  0.89976183  0.67396326     0.14900
C2468       C  0.60840704  0.88210809  0.65454224    -0.31600
H2469       H  0.60419014  0.88497456  0.63359016     0.16900
C2470       C  0.61468898  0.75594382  0.70987593    -0.30500
N2471       N  0.59978247  0.72401500  0.69003198     0.13700
C2472       C  0.61097072  0.74689102  0.66663828    -0.30500
C2473       C  0.74514664  0.89545043  0.71013396    -0.30800
N2474       N  0.77640283  0.90628341  0.69007927     0.14200
H2475       H  0.75412558  0.90069808  0.73092219     0.16800
C2476       C  0.75286053  0.89108232  0.66690976    -0.30800
H2477       H  0.76851814  0.89293149  0.64769869     0.16800
H2478       H  0.60059658  0.73010521  0.64746929     0.16800
H2479       H  0.59809877  0.90136775  0.71677727     0.16900
H2480       H  0.61224757  0.74823593  0.73071454     0.16800
C2481       C  0.60754919  0.81017160  0.77955986    -0.11200
C2482       C  0.64457411  0.84560721  0.79390187     0.11400
C2483       C  0.67742368  0.88768315  0.78165124    -0.03000
C2484       C  0.67555000  0.88978497  0.75411462    -0.05700
C2485       C  0.64187412  0.85127729  0.73940159    -0.16500
C2486       C  0.60229969  0.81542286  0.75296139     0.02400
C2487       C  0.64535290  0.83841814  0.82208691     0.12400
C2488       C  0.71457647  0.92918421  0.79733656     0.63000
H2489       H  0.70108142  0.92087824  0.74391199     0.12400
C2490       C  0.55329747  0.78441381  0.74176845     0.55100
H2491       H  0.58131255  0.77893931  0.78950575     0.08200
C2492       C  0.60987443  0.83478364  0.83903166    -0.05600
C2493       C  0.61185149  0.82577164  0.86547314    -0.06300
C2494       C  0.65194400  0.82913494  0.87599220    -0.15900
C2495       C  0.68142365  0.82254203  0.85846502    -0.01500
C2496       C  0.67889570  0.82957880  0.83146971    -0.09100
C2497       C  0.57145465  0.84244293  0.82985636     0.65200
H2498       H  0.58317776  0.81913445  0.87850314     0.10700
C2499       C  0.71013598  0.80172100  0.86590324     0.63600
H2500       H  0.70215094  0.82669782  0.81749775     0.08000
F2501       F  0.52308902  0.79344913  0.75568160    -0.19500
F2502       F  0.53816358  0.73814284  0.74517477    -0.15700
F2503       F  0.54978205  0.79155338  0.71534047    -0.19200
F2504       F  0.74629199  0.91923802  0.80739259    -0.22600
F2505       F  0.69404358  0.93962859  0.81806611    -0.24000
F2506       F  0.73880127  0.96822149  0.78173545    -0.18000
F2507       F  0.69490158  0.76144195  0.85112811    -0.20500
F2508       F  0.70583303  0.78987314  0.89224339    -0.21700
F2509       F  0.75672279  0.83227221  0.85993319    -0.18800
F2510       F  0.54742351  0.84702042  0.85105571    -0.18900
F2511       F  0.53943710  0.80535660  0.81457656    -0.22800
F2512       F  0.59051348  0.88254762  0.81517845    -0.24400
C2513       C  0.61917408  0.83253379  0.53253601    -0.11200
C2514       C  0.66020527  0.84119078  0.54446475     0.11400
C2515       C  0.69788287  0.84649740  0.52914134    -0.03000
C2516       C  0.69288429  0.84323413  0.00189327    -0.05700
C2517       C  0.65542304  0.84246310  0.98927932    -0.16500
C2518       C  0.61502552  0.83127527  0.50494171     0.02400
C2519       C  0.66226721  0.84242343  0.57316971     0.12400
C2520       C  0.74319980  0.85536621  0.54118767     0.63000
H2521       H  0.71779942  0.83898310  0.99050806     0.12400
C2522       C  0.56586934  0.81411030  0.99495092     0.55100
H2523       H  0.58961744  0.82548203  0.54502573     0.08200
C2524       C  0.67195942  0.88257340  0.58751929    -0.05600
C2525       C  0.67732899  0.88270220  0.61476691    -0.06300
C2526       C  0.66901301  0.84273264  0.62781892    -0.15900
C2527       C  0.67016858  0.80767223  0.61276555    -0.01500
C2528       C  0.66134259  0.80542483  0.58573910    -0.09100
C2529       C  0.67596983  0.92455517  0.57432966     0.65200
H2530       H  0.68559173  0.91330949  0.62633573     0.10700
C2531       C  0.69053234  0.77960271  0.62227617     0.63600
H2532       H  0.65796751  0.77668999  0.57395526     0.08000
F2533       F  0.55416348  0.84678062  0.00107167    -0.19500
F2534       F  0.53446324  0.77334531  0.00771470    -0.15700
F2535       F  0.55977219  0.80435334  0.96819875    -0.19200
F2536       F  0.73599112  0.81551210  0.55281423    -0.22600
F2537       F  0.75931182  0.89058402  0.56003950    -0.24000
F2538       F  0.77802805  0.86872101  0.52219667    -0.18000
F2539       F  0.65831918  0.73262085  0.61949101    -0.20500
F2540       F  0.72903805  0.79005218  0.60673069    -0.21700
F2541       F  0.70571112  0.78964102  0.64816737    -0.18800
F2542       F  0.68597015  0.95970280  0.59247969    -0.18900
F2543       F  0.63425800  0.91216146  0.56233397    -0.22800
F2544       F  0.71122462  0.94186396  0.55545367    -0.24400
C2545       C  0.80982753  0.68573589  0.90477602    -0.11200
C2546       C  0.83423631  0.66997627  0.89033379     0.11400
C2547       C  0.86214799  0.65621637  0.90263341    -0.03000
C2548       C  0.86339994  0.65756533  0.93007112    -0.05700
C2549       C  0.83509666  0.66851766  0.94520954    -0.16500
C2550       C  0.81023000  0.68665388  0.93224026     0.02400
C2551       C  0.83190861  0.67095125  0.86201390     0.12400
C2552       C  0.89124888  0.64114659  0.88705559     0.63000
H2553       H  0.88901392  0.65321790  0.93938407     0.12400
C2554       C  0.78437650  0.70890433  0.94453333     0.55100
H2555       H  0.79064594  0.69814936  0.89426093     0.08200
C2556       C  0.79463562  0.63450130  0.84804378    -0.05600
C2557       C  0.79741154  0.63567549  0.82060855    -0.06300
C2558       C  0.83558180  0.67241247  0.80709662    -0.15900
C2559       C  0.87552708  0.70571605  0.82194048    -0.01500
C2560       C  0.87034747  0.70701433  0.84919554    -0.09100
C2561       C  0.75282834  0.59445287  0.86209192     0.65200
H2562       H  0.77096520  0.60589153  0.80981571     0.10700
C2563       C  0.92571508  0.73707322  0.81202161     0.63600
H2564       H  0.89894421  0.73370132  0.86098047     0.08000
F2565       F  0.73761791  0.68218678  0.93787703    -0.19500
F2566       F  0.80254618  0.75257410  0.93390979    -0.15700
F2567       F  0.78695428  0.71475892  0.97161888    -0.19200
F2568       F  0.92842964  0.67909746  0.87493005    -0.22600
F2569       F  0.86429013  0.60835654  0.86796381    -0.24000
F2570       F  0.90898271  0.62158417  0.90330413    -0.18000
F2571       F  0.93848749  0.78303234  0.81455175    -0.20500
F2572       F  0.93385843  0.72855384  0.78634254    -0.21700
F2573       F  0.95515001  0.73052781  0.82766787    -0.18800
F2574       F  0.72183044  0.56097936  0.84441466    -0.18900
F2575       F  0.72901795  0.61097489  0.87642158    -0.22800
F2576       F  0.76760313  0.57334186  0.87918680    -0.24400
C2577       C  0.81454262  0.67173560  0.65312758    -0.11200
C2578       C  0.83785176  0.65342914  0.63996695     0.11400
C2579       C  0.86623374  0.64157266  0.65342566    -0.03000
C2580       C  0.86823616  0.64661702  0.68083723    -0.05700
C2581       C  0.84053342  0.65983271  0.69483880    -0.16500
C2582       C  0.81529682  0.67600781  0.68042646     0.02400
C2583       C  0.83735360  0.65499536  0.61161432     0.12400
C2584       C  0.89463874  0.62449946  0.63897547     0.63000
H2585       H  0.89394025  0.64322231  0.69090976     0.12400
C2586       C  0.78972855  0.69987776  0.69080118     0.55100
H2587       H  0.79590673  0.68369170  0.64159752     0.08200
C2588       C  0.79814701  0.62276515  0.59703925    -0.05600
C2589       C  0.79856913  0.63049749  0.57015301    -0.06300
C2590       C  0.83626335  0.66951518  0.55773470    -0.15900
C2591       C  0.87823040  0.69792284  0.57247092    -0.01500
C2592       C  0.87551308  0.69294583  0.59974165    -0.09100
C2593       C  0.75657614  0.58030887  0.60965362     0.65200
H2594       H  0.77062073  0.60363814  0.55852840     0.10700
C2595       C  0.92784109  0.73012965  0.56185379     0.63600
H2596       H  0.90501801  0.71719980  0.61189459     0.08000
F2597       F  0.74387219  0.67479236  0.68229056    -0.19500
F2598       F  0.81101488  0.74378278  0.68005251    -0.15700
F2599       F  0.78857481  0.70533641  0.71780822    -0.19200
F2600       F  0.92874074  0.65927120  0.62339464    -0.22600
F2601       F  0.86569642  0.58665631  0.62304742    -0.24000
F2602       F  0.91654405  0.61103604  0.65645386    -0.18000
F2603       F  0.94146441  0.77577024  0.56706354    -0.20500
F2604       F  0.93376854  0.72472074  0.53526362    -0.21700
F2605       F  0.95828104  0.72128957  0.57487026    -0.18800
F2606       F  0.72231214  0.55346366  0.59127872    -0.18900
F2607       F  0.73645067  0.59365891  0.62912751    -0.22800
F2608       F  0.77110622  0.55304544  0.62081240    -0.24400
loop_ 
_geom_bond_atom_site_label_1 
_geom_bond_atom_site_label_2 
_geom_bond_distance 
_geom_bond_site_symmetry_2 
_ccdc_geom_bond_type 
C1            C3   1.538       .  S
C1            C5   1.539       .  S
C1            C4   1.558       .  S
C1          C308   1.495       .  S
C2            C6   1.543       .  S
C2            C8   1.520       .  S
C2            C7   1.519       .  S
C2          C267   1.498       .  S
C3           C11   1.374       .  A
C3          C332   1.388   1_554  A
C4           C15   1.397       .  A
C4          C333   1.382   1_554  A
C5           C19   1.393       .  A
C5          C334   1.377   1_554  A
C6            C9   1.389       .  A
C6          C329   1.388       .  A
C7           C13   1.360       .  A
C7          C330   1.382       .  A
C8           C16   1.360       .  A
C8          C331   1.377       .  A
C9           N10   1.354       .  A
C9           H22   1.080       .  S
N10         C337   1.347       .  A
N10          C87   1.422       .  S
C11         N336   1.347       .  A
C11          H12   1.083       .  S
C13         N340   1.350       .  A
C13          H23   1.083       .  S
N14          C15   1.361   1_556  A
N14         C339   1.350       .  A
N14          C47   1.431       .  S
C15          H21   1.082       .  S
C16         N343   1.350       .  A
C16          H18   1.081       .  S
N17          C19   1.363   1_556  A
N17         C342   1.350       .  A
N17         C381   1.434       .  S
C19          H20   1.081       .  S
C24          C26   1.541       .  S
C24          C28   1.537       .  S
C24          C27   1.556       .  S
C24         C276   1.495       .  S
C25          C29   1.545       .  S
C25          C31   1.528       .  S
C25          C30   1.528       .  S
C25         C299   1.497       .  S
C26          C34   1.378       .  A
C26          C29   1.391       .  A
C27          C38   1.395       .  A
C27          C30   1.382       .  A
C28          C42   1.391       .  A
C28          C31   1.375       .  A
C29          C32   1.388       .  A
C30          C36   1.371       .  A
C31          C39   1.368       .  A
C32          N33   1.353       .  A
C32          H45   1.079       .  S
N33          C34   1.351       .  A
N33         C140   1.426       .  S
C34          H35   1.083       .  S
C36          N37   1.351       .  A
C36          H46   1.083       .  S
N37          C38   1.361       .  A
N37         C100   1.436       .  S
C38          H44   1.082       .  S
C39          N40   1.354       .  A
C39          H41   1.081       .  S
N40          C42   1.361       .  A
N40         C108   1.437       .  S
C42          H43   1.081       .  S
C47         N391   1.342       .  A
C47          C84   1.465   1_556  S
N48          N65   1.316       .  A
N48          N70   1.326       .  A
N48         Co85   2.096       .  S
C49          N74   1.340       .  A
C49          H94   1.081   1_545  S
C49          C87   1.453       .  S
H50          C91   1.081       .  S
C51          N75   1.331       .  A
C51          H80   1.081       .  S
C51          C55   1.458       .  S
Co52        N396   2.092       .  S
Co52       N1364   2.159   1_556  S
Co52        N418   2.098       .  S
Co52       N1698   2.075   1_456  S
Co52      Cl1726   2.475   1_455  S
N53          C91   1.367       .  A
N53         N712   1.324       .  A
N53        Co380   2.172   1_554  S
Co54         N57   2.085       .  S
Co54         N61   2.111       .  S
Co54        N379   2.172       .  S
Co54        N726   2.070       .  S
Co54       Cl748   2.465       .  S
C55         N419   1.353       .  A
C55         N343   1.434       .  S
N56          N63   1.319       .  A
N56          N86   1.326       .  A
N56       Co1393   2.093   1_455  S
N57          N75   1.325       .  A
N57         N419   1.330       .  A
N58          C87   1.347       .  A
N58          N68   1.323       .  A
H59          C84   1.081       .  S
N60         N705   1.324   1_545  A
N60        N1385   1.345       .  A
N60       Co1356   2.159   1_554  S
N61          N79   1.326       .  A
N61          N66   1.318       .  A
C62          N66   1.348       .  A
C62         N169   1.439       .  S
C62          C90   1.470       .  S
N63          C78   1.342       .  A
N63        Co737   2.079       .  S
C64          N92   1.331       .  A
C64          H98   1.081       .  S
C64          C67   1.455       .  S
N65         C373   1.342       .  A
C67          N88   1.355       .  A
C67         N166   1.433       .  S
N68          N74   1.316       .  A
N68       Co1682   2.075       .  S
N69          C95   1.365       .  A
N69        N2027   1.323   1_445  A
N69         Co85   2.162       .  S
N70         C410   1.351       .  A
N70        Co378   2.092       .  S
N71          N99   1.345       .  A
N71        N2025   1.323       .  A
N71         Co89   2.157       .  S
H72          C95   1.081       .  S
H73          C90   1.082       .  S
N74        Co706   2.070   1_545  S
N75         Co89   2.099       .  S
N76          N88   1.329       .  A
N76          N92   1.325       .  A
N76         Co85   2.092       .  S
C77        N2037   1.370       .  A
C77          C91   1.491       .  S
C77        C2092   1.563       .  S
C78          H82   1.081       .  S
C78          C97   1.452       .  S
N79          C90   1.353       .  A
N79         Co89   2.101       .  S
N81        C2033   1.370   1_455  A
N81        N1364   1.345       .  A
C83         N751   1.369   1_545  A
C83        C1399   1.488       .  S
C83         C782   1.558       .  S
C84         N396   1.351   1_554  A
Co85        N715   2.079   1_545  S
Co85      Cl1400   2.466   1_455  S
N86          C97   1.351       .  A
Co89       N1360   2.093       .  S
Co89       Cl748   2.475       .  S
N92        Co378   2.098       .  S
N93         C381   1.353   1_554  A
N93         N383   1.330   1_554  A
C95        C1387   1.488   1_455  S
Cl96      Co1682   2.475       .  S
Cl96       Co706   2.465   1_545  S
Cl96      Co1389   2.466       .  S
Cl96       Co741   2.475   1_545  S
C97         N162   1.429       .  S
N99         C735   1.369       .  A
C100        N118   1.348       .  A
C100        C137   1.462       .  S
N101        N118   1.322       .  A
N101        N123   1.328       .  A
N101       Co138   2.112       .  S
C102        N127   1.340       .  A
C102        H147   1.081       .  S
C102        C140   1.458       .  S
H103        C144   1.081       .  S
C104        N128   1.333       .  A
C104        H133   1.081       .  S
C104        C108   1.453       .  S
Co105       N123   2.094       .  S
Co105       N145   2.106       .  S
Co105      N1417   2.161       .  S
Co105      N1425   2.083   1_455  S
Co105     Cl1453   2.473   1_455  S
N106        C144   1.365       .  A
N106        N765   1.324       .  A
N106       Co107   2.160       .  S
Co107       N110   2.095       .  S
Co107       N114   2.100       .  S
Co107       N779   2.079       .  S
Co107      Cl801   2.474       .  S
C108        N146   1.354       .  A
N109        N116   1.318       .  A
N109        N139   1.322       .  A
N109      Co1446   2.069   1_455  S
N110        N128   1.326       .  A
N110        N146   1.331       .  A
N111        C140   1.351       .  A
N111        N121   1.324       .  A
H112        C137   1.081       .  S
N113        N758   1.324   1_545  A
N113       N1438   1.345       .  A
N113      Co1409   2.161       .  S
N114        N132   1.328       .  A
N114        N119   1.319       .  A
C115        N119   1.344       .  A
C115        N192   1.431       .  S
C115        C143   1.463       .  S
N116        C131   1.341       .  A
N116       Co790   2.086       .  S
C117        N145   1.333       .  A
C117        H151   1.080       .  S
C117        C120   1.456       .  S
C120        N141   1.355       .  A
C120        N189   1.439       .  S
N121        N127   1.317       .  A
N121      Co1409   2.083       .  S
N122        C148   1.366       .  A
N122       N2080   1.324   1_445  A
N122       Co138   2.169       .  S
N123        C137   1.348       .  A
N124        N152   1.346       .  A
N124       N2078   1.324       .  A
N124       Co142   2.160       .  S
H125        C148   1.081       .  S
H126        C143   1.081       .  S
N127       Co759   2.079   1_545  S
N128       Co142   2.100       .  S
N129        N141   1.332       .  A
N129        N145   1.327       .  A
N129       Co138   2.100       .  S
C130       N2090   1.369       .  A
C130        C144   1.487       .  S
C130        C735   1.558       .  S
C131        H135   1.081       .  S
C131        C150   1.460       .  S
N132        C143   1.347       .  A
N132       Co142   2.090       .  S
N134       C2086   1.369   1_455  A
N134       N1417   1.345       .  A
C136       N2108   1.370   1_545  A
C136        C148   1.489   1_655  S
C136       C2033   1.563       .  S
Co138       N768   2.086   1_545  S
Co138     Cl1453   2.474   1_455  S
N139        C150   1.346       .  A
Co142      N1413   2.069       .  S
Co142      Cl801   2.474       .  S
Cl149     Co1409   2.473       .  S
Cl149      Co759   2.474   1_545  S
Cl149     Co1442   2.474       .  S
Cl149      Co794   2.474   1_545  S
C150        N185   1.423       .  S
N152       C2092   1.370       .  A
C153        C155   1.565       .  S
C153        C157   1.554       .  S
C153        C156   1.529       .  S
C153        C212   1.508       .  S
C154        C158   1.528       .  S
C154        C160   1.544       .  S
C154        C159   1.517       .  S
C154        C235   1.514       .  S
C155        C163   1.386       .  A
C155        C158   1.389       .  A
C156        C167   1.388       .  A
C156        C159   1.373       .  A
C157        C171   1.399       .  A
C157        C160   1.395       .  A
C158        C161   1.382       .  A
C159        C165   1.364       .  A
C160        C168   1.366       .  A
C161        N162   1.354       .  A
C161        H174   1.081       .  S
N162        C163   1.352       .  A
C163        H164   1.081       .  S
C165        N166   1.354       .  A
C165        H175   1.082       .  S
N166        C167   1.359       .  A
C167        H173   1.082       .  S
C168        N169   1.348       .  A
C168        H170   1.082       .  S
N169        C171   1.363       .  A
C171        H172   1.079       .  S
C176        C178   1.548       .  S
C176        C180   1.536       .  S
C176        C179   1.549       .  S
C176        C244   1.503       .  S
C177        C181   1.520       .  S
C177        C183   1.536       .  S
C177        C182   1.537       .  S
C177        C203   1.505       .  S
C178        C186   1.384       .  A
C178        C181   1.382       .  A
C179        C190   1.393       .  A
C179        C182   1.387       .  A
C180        C194   1.382       .  A
C180        C183   1.387       .  A
C181        C184   1.376       .  A
C182        C188   1.369       .  A
C183        C191   1.375       .  A
C184        N185   1.352       .  A
C184        H197   1.082       .  S
N185        C186   1.352       .  A
C186        H187   1.082       .  S
C188        N189   1.352       .  A
C188        H198   1.080       .  S
N189        C190   1.360       .  A
C190        H196   1.078       .  S
C191        N192   1.356       .  A
C191        H193   1.082       .  S
N192        C194   1.356       .  A
C194        H195   1.082       .  S
C199        C200   1.393       .  A
C199        C204   1.384       .  A
C199        H209   1.084       .  S
C200        C201   1.411       .  A
C200        C205   1.451       .  S
C201        C206   1.519       .  S
C201        C202   1.397       .  A
C202        C203   1.404       .  A
C202        H207   1.081       .  S
C203        C204   1.421       .  A
C204        C208   1.526       .  S
C205        C210   1.409       .  A
C205        C214   1.401       .  A
C206        F222   1.382       .  S
C206        F223   1.383       .  S
C206        F224   1.385       .  S
C208        F219   1.383       .  S
C208        F220   1.383       .  S
C208        F221   1.378       .  S
C210        C215   1.525       .  S
C210        C211   1.385       .  A
C211        C212   1.404       .  A
C211        H216   1.082       .  S
C212        C213   1.418       .  A
C213        C217   1.519       .  S
C213        C214   1.399       .  A
C214        H218   1.085       .  S
C215        F228   1.385       .  S
C215        F229   1.378       .  S
C215        F230   1.383       .  S
C217        F225   1.384       .  S
C217        F226   1.379       .  S
C217        F227   1.382       .  S
C231        C232   1.396       .  A
C231        C236   1.399       .  A
C231        H241   1.085       .  S
C232        C233   1.403       .  A
C232        C237   1.450       .  S
C233        C238   1.525       .  S
C233        C560   1.383       .  A
C234        C235   1.409       .  A
C234        C559   1.383       .  A
C234        H239   1.077       .  S
C235        C562   1.431       .  A
C236        C566   1.527   1_554  S
C236        C561   1.431   1_554  A
C237        C242   1.408       .  A
C237        C246   1.400       .  A
C238        F254   1.380       .  S
C238        F255   1.383       .  S
C238        F256   1.385       .  S
C240        C562   1.527       .  S
C240        F251   1.383       .  S
C240        F252   1.384       .  S
C240        F253   1.376       .  S
C242        C247   1.521       .  S
C242        C243   1.389       .  A
C243        C244   1.405       .  A
C243        H248   1.082       .  S
C244        C245   1.414       .  A
C245        C249   1.521       .  S
C245        C246   1.393       .  A
C246        H250   1.084       .  S
C247        F260   1.384       .  S
C247        F261   1.382       .  S
C247        F262   1.382       .  S
C249        F257   1.382       .  S
C249        F258   1.383       .  S
C249        F259   1.380       .  S
C263        C264   1.383       .  A
C263        C268   1.386       .  A
C263        H273   1.086       .  S
C264        C265   1.404       .  A
C264        C269   1.434       .  S
C265        C270   1.522       .  S
C265        C266   1.385       .  A
C266        C267   1.401       .  A
C266        H271   1.065       .  S
C267        C268   1.441       .  A
C268        C272   1.536       .  S
C269        C274   1.401       .  A
C269        C278   1.388       .  A
C270        F286   1.381       .  S
C270        F287   1.383       .  S
C270        F288   1.385       .  S
C272        F283   1.384       .  S
C272        F284   1.385       .  S
C272        F285   1.375       .  S
C274        C279   1.523       .  S
C274        C275   1.386       .  A
C275        C276   1.410       .  A
C275        H280   1.076       .  S
C276        C277   1.431       .  A
C277        C281   1.529       .  S
C277        C278   1.386       .  A
C278        H282   1.086       .  S
C279        F292   1.385       .  S
C279        F293   1.382       .  S
C279        F294   1.383       .  S
C281        F289   1.383       .  S
C281        F290   1.376       .  S
C281        F291   1.384       .  S
C295        C296   1.384       .  A
C295        C300   1.381       .  A
C295        H305   1.087       .  S
C296        C297   1.403       .  A
C296        C301   1.433       .  S
C297        C302   1.522       .  S
C297        C298   1.389       .  A
C298        C299   1.404       .  A
C298        H303   1.068       .  S
C299        C300   1.440       .  A
C300        C304   1.537       .  S
C301        C306   1.400       .  A
C301        C310   1.389       .  A
C302        F318   1.381       .  S
C302        F319   1.382       .  S
C302        F320   1.385       .  S
C304        F315   1.384       .  S
C304        F316   1.385       .  S
C304        F317   1.374       .  S
C306        C311   1.524       .  S
C306        C307   1.385       .  A
C307        C308   1.411       .  A
C307        H312   1.074       .  S
C308        C309   1.432       .  A
C309        C313   1.530       .  S
C309        C310   1.385       .  A
C310        H314   1.086       .  S
C311        F324   1.384       .  S
C311        F325   1.382       .  S
C311        F326   1.382       .  S
C313        F321   1.382       .  S
C313        F322   1.376       .  S
C313        F323   1.386       .  S
C327        C329   1.538       .  S
C327        C331   1.539       .  S
C327        C330   1.558       .  S
C327        C634   1.495       .  S
C328        C332   1.543       .  S
C328        C334   1.520       .  S
C328        C333   1.519       .  S
C328        C593   1.498       .  S
C329        C337   1.374       .  A
C330        C341   1.397       .  A
C331        C345   1.393       .  A
C332        C335   1.389       .  A
C333        C339   1.360       .  A
C334        C342   1.360       .  A
C335        N336   1.354   1_556  A
C335        H348   1.080       .  S
N336        C413   1.422       .  S
C337        H338   1.083       .  S
C339        H349   1.083       .  S
N340        C341   1.361       .  A
N340        C373   1.431       .  S
C341        H347   1.082       .  S
C342        H344   1.081       .  S
N343        C345   1.363       .  A
C345        H346   1.081       .  S
C350        C352   1.541       .  S
C350        C354   1.537       .  S
C350        C353   1.556       .  S
C350        C602   1.495       .  S
C351        C355   1.545       .  S
C351        C357   1.528       .  S
C351        C356   1.528       .  S
C351        C625   1.497       .  S
C352        C360   1.378       .  A
C352        C355   1.391       .  A
C353        C364   1.395       .  A
C353        C356   1.382       .  A
C354        C368   1.391       .  A
C354        C357   1.375       .  A
C355        C358   1.388       .  A
C356        C362   1.371       .  A
C357        C365   1.368       .  A
C358        N359   1.353       .  A
C358        H371   1.079       .  S
N359        C360   1.351       .  A
N359        C466   1.426       .  S
C360        H361   1.083       .  S
C362        N363   1.351       .  A
C362        H372   1.083       .  S
N363        C364   1.361       .  A
N363        C426   1.436       .  S
C364        H370   1.082       .  S
C365        N366   1.354       .  A
C365        H367   1.081       .  S
N366        C368   1.361       .  A
N366        C434   1.437       .  S
C368        H369   1.081       .  S
C373        C410   1.465       .  S
N374        N391   1.316       .  A
N374        N396   1.326       .  A
N374       Co411   2.096       .  S
C375        N400   1.340       .  A
C375        H420   1.081   1_545  S
C375        C413   1.453       .  S
H376        C417   1.081       .  S
C377        N401   1.331       .  A
C377        H406   1.081       .  S
C377        C381   1.458       .  S
Co378      N1690   2.159       .  S
Co378      N1372   2.075   1_455  S
Co378     Cl1400   2.475   1_455  S
N379        C417   1.367       .  A
N379       N1038   1.324       .  A
Co380       N383   2.086       .  S
Co380      N1052   2.070   1_556  S
Co380       N387   2.111       .  S
Co380     Cl1074   2.465       .  S
N382        N389   1.319       .  A
N382        N412   1.326       .  A
N382      Co1719   2.093   1_455  S
N383        N401   1.325       .  A
N384        C413   1.347       .  A
N384        N394   1.323       .  A
H385        C410   1.081       .  S
N386       N1031   1.324   1_545  A
N386       N1711   1.345       .  A
N386      Co1682   2.159       .  S
N387        N405   1.326       .  A
N387        N392   1.318       .  A
C388        N392   1.348       .  A
C388        N495   1.439       .  S
C388        C416   1.470       .  S
N389        C404   1.342       .  A
N389      Co1063   2.079       .  S
C390        N418   1.331       .  A
C390        H424   1.081       .  S
C390        C393   1.455       .  S
C393        N414   1.355       .  A
C393        N492   1.433       .  S
N394        N400   1.316       .  A
N394      Co1356   2.075   1_554  S
N395        C421   1.365       .  A
N395       N2353   1.323   1_445  A
N395       Co411   2.162       .  S
N397       N2351   1.323       .  A
N397        N425   1.345       .  A
N397       Co415   2.157       .  S
H398        C421   1.081       .  S
H399        C416   1.082       .  S
N400      Co1032   2.070   1_544  S
N401       Co415   2.099       .  S
N402        N414   1.329       .  A
N402        N418   1.325       .  A
N402       Co411   2.092       .  S
C403       N2363   1.370       .  A
C403        C417   1.491       .  S
C403       C2418   1.563       .  S
C404        H408   1.081       .  S
C404        C423   1.452       .  S
N405        C416   1.353       .  A
N405       Co415   2.101       .  S
N407       C2359   1.370   1_455  A
N407       N1690   1.345       .  A
C409       N1077   1.369   1_545  A
C409       C1725   1.488       .  S
C409       C1108   1.558       .  S
Co411      N1041   2.079   1_545  S
Co411     Cl1726   2.466   1_455  S
N412        C423   1.351       .  A
Co415      N1686   2.093       .  S
Co415     Cl1074   2.475       .  S
C421       C1713   1.488   1_455  S
Cl422     Co1356   2.475       .  S
Cl422     Co1032   2.465   1_545  S
Cl422     Co1715   2.466       .  S
Cl422     Co1067   2.475   1_545  S
C423        N488   1.429       .  S
N425       C1061   1.369       .  A
C426        N444   1.348       .  A
C426        C463   1.462       .  S
N427        N444   1.322       .  A
N427        N449   1.328       .  A
N427       Co464   2.112       .  S
C428        N453   1.340       .  A
C428        H473   1.081       .  S
C428        C466   1.458       .  S
H429        C470   1.081       .  S
C430        N454   1.333       .  A
C430        H459   1.081       .  S
C430        C434   1.453       .  S
Co431       N449   2.094       .  S
Co431      N1743   2.161       .  S
Co431       N471   2.106       .  S
Co431      N1751   2.083   1_455  S
Co431     Cl1779   2.473   1_455  S
N432        C470   1.365       .  A
N432       N1091   1.324       .  A
N432       Co433   2.160       .  S
Co433       N436   2.095       .  S
Co433      N1105   2.079       .  S
Co433       N440   2.100       .  S
Co433     Cl1127   2.474       .  S
C434        N472   1.354       .  A
N435        N442   1.318       .  A
N435        N465   1.322       .  A
N435      Co1772   2.069   1_455  S
N436        N454   1.326       .  A
N436        N472   1.331       .  A
N437        C466   1.351       .  A
N437        N447   1.324       .  A
H438        C463   1.081       .  S
N439       N1084   1.324   1_545  A
N439       N1764   1.345       .  A
N439      Co1735   2.161       .  S
N440        N458   1.328       .  A
N440        N445   1.319       .  A
C441        N445   1.344       .  A
C441        N518   1.431       .  S
C441        C469   1.463       .  S
N442        C457   1.341       .  A
N442      Co1116   2.086       .  S
C443        N471   1.333       .  A
C443        H477   1.080       .  S
C443        C446   1.456       .  S
C446        N467   1.355       .  A
C446        N515   1.439       .  S
N447        N453   1.317       .  A
N447      Co1735   2.083       .  S
N448        C474   1.366       .  A
N448       N2406   1.324   1_445  A
N448       Co464   2.169       .  S
N449        C463   1.348       .  A
N450       N2404   1.324       .  A
N450        N478   1.346       .  A
N450       Co468   2.160       .  S
H451        C474   1.081       .  S
H452        C469   1.081       .  S
N453      Co1085   2.079   1_545  S
N454       Co468   2.100       .  S
N455        N467   1.332       .  A
N455        N471   1.327       .  A
N455       Co464   2.100       .  S
C456       N2416   1.369       .  A
C456       C1061   1.558       .  S
C456        C470   1.487       .  S
C457        H461   1.081       .  S
C457        C476   1.460       .  S
N458        C469   1.347       .  A
N458       Co468   2.090       .  S
N460       C2412   1.369   1_455  A
N460       N1743   1.345       .  A
C462       N2434   1.370   1_545  A
C462       C2359   1.563       .  S
C462        C474   1.489   1_655  S
Co464      N1094   2.086   1_545  S
Co464     Cl1779   2.474   1_455  S
N465        C476   1.346       .  A
Co468      N1739   2.069       .  S
Co468     Cl1127   2.474       .  S
Cl475     Co1735   2.473       .  S
Cl475     Co1085   2.474   1_545  S
Cl475     Co1768   2.474       .  S
Cl475     Co1120   2.474   1_545  S
C476        N511   1.423       .  S
N478       C2418   1.370       .  A
C479        C481   1.565       .  S
C479        C483   1.554       .  S
C479        C482   1.529       .  S
C479        C538   1.508       .  S
C480        C484   1.528       .  S
C480        C486   1.544       .  S
C480        C485   1.517       .  S
C480        C561   1.514       .  S
C481        C489   1.386       .  A
C481        C484   1.389       .  A
C482        C493   1.388       .  A
C482        C485   1.373       .  A
C483        C497   1.399       .  A
C483        C486   1.395       .  A
C484        C487   1.382       .  A
C485        C491   1.364       .  A
C486        C494   1.366       .  A
C487        N488   1.354       .  A
C487        H500   1.081       .  S
N488        C489   1.352       .  A
C489        H490   1.081       .  S
C491        N492   1.354       .  A
C491        H501   1.082       .  S
N492        C493   1.359       .  A
C493        H499   1.082       .  S
C494        N495   1.348       .  A
C494        H496   1.082       .  S
N495        C497   1.363       .  A
C497        H498   1.079       .  S
C502        C504   1.548       .  S
C502        C506   1.536       .  S
C502        C505   1.549       .  S
C502        C570   1.503       .  S
C503        C507   1.520       .  S
C503        C509   1.536       .  S
C503        C508   1.537       .  S
C503        C529   1.505       .  S
C504        C512   1.384       .  A
C504        C507   1.382       .  A
C505        C516   1.393       .  A
C505        C508   1.387       .  A
C506        C520   1.382       .  A
C506        C509   1.387       .  A
C507        C510   1.376       .  A
C508        C514   1.369       .  A
C509        C517   1.375       .  A
C510        N511   1.352       .  A
C510        H523   1.082       .  S
N511        C512   1.352       .  A
C512        H513   1.082       .  S
C514        N515   1.352       .  A
C514        H524   1.080       .  S
N515        C516   1.360       .  A
C516        H522   1.078       .  S
C517        N518   1.356       .  A
C517        H519   1.082       .  S
N518        C520   1.356       .  A
C520        H521   1.082       .  S
C525        C526   1.393       .  A
C525        C530   1.384       .  A
C525        H535   1.084       .  S
C526        C527   1.411       .  A
C526        C531   1.451       .  S
C527        C532   1.519       .  S
C527        C528   1.397       .  A
C528        C529   1.404       .  A
C528        H533   1.081       .  S
C529        C530   1.421       .  A
C530        C534   1.526       .  S
C531        C536   1.409       .  A
C531        C540   1.401       .  A
C532        F548   1.382       .  S
C532        F549   1.383       .  S
C532        F550   1.385       .  S
C534        F545   1.383       .  S
C534        F546   1.383       .  S
C534        F547   1.378       .  S
C536        C541   1.525       .  S
C536        C537   1.385       .  A
C537        C538   1.404       .  A
C537        H542   1.082       .  S
C538        C539   1.418       .  A
C539        C543   1.519       .  S
C539        C540   1.399       .  A
C540        H544   1.085       .  S
C541        F554   1.385       .  S
C541        F555   1.378       .  S
C541        F556   1.383       .  S
C543        F551   1.384       .  S
C543        F552   1.379       .  S
C543        F553   1.382       .  S
C557        C558   1.396       .  A
C557        C562   1.399       .  A
C557        H567   1.085       .  S
C558        C559   1.403       .  A
C558        C563   1.450       .  S
C559        C564   1.525       .  S
C560        C561   1.409   1_554  A
C560        H565   1.077   1_554  S
C563        C568   1.408       .  A
C563        C572   1.400       .  A
C564        F580   1.380       .  S
C564        F581   1.383       .  S
C564        F582   1.385       .  S
C566        F577   1.383   1_556  S
C566        F578   1.384   1_556  S
C566        F579   1.376       .  S
C568        C573   1.521       .  S
C568        C569   1.389       .  A
C569        C570   1.405       .  A
C569        H574   1.082       .  S
C570        C571   1.414       .  A
C571        C575   1.521       .  S
C571        C572   1.393       .  A
C572        H576   1.084       .  S
C573        F586   1.384       .  S
C573        F587   1.382       .  S
C573        F588   1.382       .  S
C575        F583   1.382       .  S
C575        F584   1.383       .  S
C575        F585   1.380       .  S
C589        C590   1.383       .  A
C589        C594   1.386       .  A
C589        H599   1.086       .  S
C590        C591   1.404       .  A
C590        C595   1.434       .  S
C591        C596   1.522       .  S
C591        C592   1.385       .  A
C592        C593   1.401       .  A
C592        H597   1.065       .  S
C593        C594   1.441       .  A
C594        C598   1.536       .  S
C595        C600   1.401       .  A
C595        C604   1.388       .  A
C596        F612   1.381       .  S
C596        F613   1.383       .  S
C596        F614   1.385       .  S
C598        F609   1.384       .  S
C598        F610   1.385       .  S
C598        F611   1.375       .  S
C600        C605   1.523       .  S
C600        C601   1.386       .  A
C601        C602   1.410       .  A
C601        H606   1.076       .  S
C602        C603   1.431       .  A
C603        C607   1.529       .  S
C603        C604   1.386       .  A
C604        H608   1.086       .  S
C605        F618   1.385       .  S
C605        F619   1.382       .  S
C605        F620   1.383       .  S
C607        F615   1.383       .  S
C607        F616   1.376       .  S
C607        F617   1.384       .  S
C621        C622   1.384       .  A
C621        C626   1.381       .  A
C621        H631   1.087       .  S
C622        C623   1.403       .  A
C622        C627   1.433       .  S
C623        C628   1.522       .  S
C623        C624   1.389       .  A
C624        C625   1.404       .  A
C624        H629   1.068       .  S
C625        C626   1.440       .  A
C626        C630   1.537       .  S
C627        C632   1.400       .  A
C627        C636   1.389       .  A
C628        F644   1.381       .  S
C628        F645   1.382       .  S
C628        F646   1.385       .  S
C630        F641   1.384       .  S
C630        F642   1.385       .  S
C630        F643   1.374       .  S
C632        C637   1.524       .  S
C632        C633   1.385       .  A
C633        C634   1.411       .  A
C633        H638   1.074       .  S
C634        C635   1.432       .  A
C635        C639   1.530       .  S
C635        C636   1.385       .  A
C636        H640   1.086       .  S
C637        F650   1.384       .  S
C637        F651   1.382       .  S
C637        F652   1.382       .  S
C639        F647   1.382       .  S
C639        F648   1.376       .  S
C639        F649   1.386       .  S
C653        C655   1.538       .  S
C653        C657   1.539       .  S
C653        C656   1.558       .  S
C653        C960   1.495       .  S
C654        C658   1.543       .  S
C654        C660   1.520       .  S
C654        C659   1.519       .  S
C654        C919   1.498       .  S
C655        C663   1.374       .  A
C655        C984   1.388   1_554  A
C656        C667   1.397       .  A
C656        C985   1.382   1_554  A
C657        C671   1.393       .  A
C657        C986   1.377   1_554  A
C658        C981   1.388       .  A
C658        C661   1.389       .  A
C659        C982   1.382       .  A
C659        C665   1.360       .  A
C660        C983   1.377       .  A
C660        C668   1.360       .  A
C661        N662   1.354       .  A
C661        H674   1.080       .  S
N662        C989   1.347       .  A
N662        C739   1.422       .  S
C663        N988   1.347       .  A
C663        H664   1.083       .  S
C665        N992   1.350       .  A
C665        H675   1.083       .  S
N666        C991   1.350       .  A
N666        C667   1.361   1_556  A
N666        C699   1.431       .  S
C667        H673   1.082       .  S
C668        N995   1.350       .  A
C668        H670   1.081       .  S
N669        C994   1.350       .  A
N669        C671   1.363   1_556  A
N669       C1033   1.434       .  S
C671        H672   1.081       .  S
C676        C678   1.541       .  S
C676        C680   1.537       .  S
C676        C679   1.556       .  S
C676        C928   1.495       .  S
C677        C681   1.545       .  S
C677        C683   1.528       .  S
C677        C682   1.528       .  S
C677        C951   1.497       .  S
C678        C686   1.378       .  A
C678        C681   1.391       .  A
C679        C690   1.395       .  A
C679        C682   1.382       .  A
C680        C694   1.391       .  A
C680        C683   1.375       .  A
C681        C684   1.388       .  A
C682        C688   1.371       .  A
C683        C691   1.368       .  A
C684        N685   1.353       .  A
C684        H697   1.079       .  S
N685        C686   1.351       .  A
N685        C792   1.426       .  S
C686        H687   1.083       .  S
C688        N689   1.351       .  A
C688        H698   1.083       .  S
N689        C690   1.361       .  A
N689        C752   1.436       .  S
C690        H696   1.082       .  S
C691        N692   1.354       .  A
C691        H693   1.081       .  S
N692        C694   1.361       .  A
N692        C760   1.437       .  S
C694        H695   1.081       .  S
C699       N1043   1.342       .  A
C699        C736   1.465   1_556  S
N700        N717   1.316       .  A
N700        N722   1.326       .  A
N700       Co737   2.096       .  S
C701        N726   1.340       .  A
C701        H746   1.081       .  S
C701        C739   1.453       .  S
H702        C743   1.081       .  S
C703        N727   1.331       .  A
C703        H732   1.081       .  S
C703        C707   1.458       .  S
Co704      N1048   2.092       .  S
Co704      N2016   2.159   1_556  S
Co704      N1070   2.098       .  S
Co704      N2350   2.075   1_456  S
Co704     Cl2378   2.475   1_455  S
N705        C743   1.367       .  A
N705      Co1032   2.172   1_554  S
Co706      N1031   2.172       .  S
Co706       N709   2.085       .  S
Co706       N713   2.111       .  S
C707       N1071   1.353       .  A
C707        N995   1.434       .  S
N708        N715   1.319       .  A
N708        N738   1.326       .  A
N708      Co2045   2.093   1_455  S
N709        N727   1.325       .  A
N709       N1071   1.330       .  A
N710        C739   1.347       .  A
N710        N720   1.323       .  A
H711        C736   1.081       .  S
N712       N2037   1.345       .  A
N712      Co2008   2.159   1_554  S
N713        N731   1.326       .  A
N713        N718   1.318       .  A
C714        N718   1.348       .  A
C714        N821   1.439       .  S
C714        C742   1.470       .  S
N715        C730   1.342       .  A
C716        N744   1.331       .  A
C716        H750   1.081       .  S
C716        C719   1.455       .  S
N717       C1025   1.342       .  A
C719        N740   1.355       .  A
C719        N818   1.433       .  S
N720        N726   1.316       .  A
N720      Co2334   2.075       .  S
N721        C747   1.365       .  A
N721       N1375   1.323   1_455  A
N721       Co737   2.162       .  S
N722       C1062   1.351       .  A
N722      Co1030   2.092       .  S
N723       N1373   1.323   1_565  A
N723        N751   1.345       .  A
N723       Co741   2.157       .  S
H724        C747   1.081       .  S
H725        C742   1.082       .  S
N727       Co741   2.099       .  S
N728        N740   1.329       .  A
N728        N744   1.325       .  A
N728       Co737   2.092       .  S
C729       N1385   1.370       .  A
C729        C743   1.491   1_545  S
C729       C1440   1.563       .  S
C730        H734   1.081   1_565  S
C730        C749   1.452       .  S
N731        C742   1.353       .  A
N731       Co741   2.101       .  S
N733       C1381   1.370   1_455  A
N733       N2016   1.345       .  A
C735       C2051   1.488       .  S
C736       N1048   1.351   1_554  A
Co737     Cl2052   2.466   1_455  S
N738        C749   1.351       .  A
Co741      N2012   2.093       .  S
N744      Co1030   2.098       .  S
N745       C1033   1.353   1_554  A
N745       N1035   1.330   1_554  A
C747       C2039   1.488   1_455  S
Cl748     Co2334   2.475       .  S
Cl748     Co2041   2.466       .  S
C749        N814   1.429       .  S
C752        N770   1.348       .  A
C752        C789   1.462       .  S
N753        N770   1.322       .  A
N753        N775   1.328       .  A
N753       Co790   2.112       .  S
C754        N779   1.340       .  A
C754        H799   1.081       .  S
C754        C792   1.458       .  S
H755        C796   1.081       .  S
C756        N780   1.333       .  A
C756        H785   1.081       .  S
C756        C760   1.453       .  S
Co757       N775   2.094       .  S
Co757      N2069   2.161       .  S
Co757       N797   2.106       .  S
Co757      N2077   2.083   1_455  S
Co757     Cl2105   2.473   1_455  S
N758        C796   1.365       .  A
N758       Co759   2.160       .  S
Co759       N762   2.095       .  S
Co759       N766   2.100       .  S
C760        N798   1.354       .  A
N761        N768   1.318       .  A
N761        N791   1.322       .  A
N761      Co2098   2.069   1_455  S
N762        N780   1.326       .  A
N762        N798   1.331       .  A
N763        C792   1.351       .  A
N763        N773   1.324       .  A
H764        C789   1.081       .  S
N765       N2090   1.345       .  A
N765      Co2061   2.161       .  S
N766        N784   1.328       .  A
N766        N771   1.319       .  A
C767        N771   1.344       .  A
C767        N844   1.431       .  S
C767        C795   1.463       .  S
N768        C783   1.341       .  A
C769        N797   1.333       .  A
C769        H803   1.080       .  S
C769        C772   1.456       .  S
C772        N793   1.355       .  A
C772        N841   1.439       .  S
N773        N779   1.317       .  A
N773      Co2061   2.083       .  S
N774        C800   1.366       .  A
N774       N1428   1.324   1_455  A
N774       Co790   2.169       .  S
N775        C789   1.348       .  A
N776       N1426   1.324   1_565  A
N776        N804   1.346       .  A
N776       Co794   2.160       .  S
H777        C800   1.081       .  S
H778        C795   1.081       .  S
N780       Co794   2.100       .  S
N781        N793   1.332       .  A
N781        N797   1.327       .  A
N781       Co790   2.100       .  S
C782       N1438   1.369       .  A
C782        C796   1.487   1_545  S
C783        H787   1.081   1_565  S
C783        C802   1.460       .  S
N784        C795   1.347       .  A
N784       Co794   2.090       .  S
N786       C1434   1.369   1_455  A
N786       N2069   1.345       .  A
C788       N1456   1.370       .  A
C788       C1381   1.563       .  S
C788        C800   1.489   1_655  S
Co790     Cl2105   2.474   1_455  S
N791        C802   1.346       .  A
Co794      N2065   2.069       .  S
Cl801     Co2061   2.473       .  S
Cl801     Co2094   2.474       .  S
C802        N837   1.423       .  S
N804       C1440   1.370   1_565  A
C805        C807   1.565       .  S
C805        C809   1.554       .  S
C805        C808   1.529       .  S
C805        C864   1.508       .  S
C806        C810   1.528       .  S
C806        C812   1.544       .  S
C806        C811   1.517       .  S
C806        C887   1.514       .  S
C807        C815   1.386       .  A
C807        C810   1.389       .  A
C808        C819   1.388       .  A
C808        C811   1.373       .  A
C809        C823   1.399       .  A
C809        C812   1.395       .  A
C810        C813   1.382       .  A
C811        C817   1.364       .  A
C812        C820   1.366       .  A
C813        N814   1.354       .  A
C813        H826   1.081       .  S
N814        C815   1.352       .  A
C815        H816   1.081       .  S
C817        N818   1.354       .  A
C817        H827   1.082       .  S
N818        C819   1.359       .  A
C819        H825   1.082       .  S
C820        N821   1.348       .  A
C820        H822   1.082       .  S
N821        C823   1.363       .  A
C823        H824   1.079       .  S
C828        C830   1.548       .  S
C828        C832   1.536       .  S
C828        C831   1.549       .  S
C828        C896   1.503       .  S
C829        C833   1.520       .  S
C829        C835   1.536       .  S
C829        C834   1.537       .  S
C829        C855   1.505       .  S
C830        C838   1.384       .  A
C830        C833   1.382       .  A
C831        C842   1.393       .  A
C831        C834   1.387       .  A
C832        C846   1.382       .  A
C832        C835   1.387       .  A
C833        C836   1.376       .  A
C834        C840   1.369       .  A
C835        C843   1.375       .  A
C836        N837   1.352       .  A
C836        H849   1.082       .  S
N837        C838   1.352       .  A
C838        H839   1.082       .  S
C840        N841   1.352       .  A
C840        H850   1.080       .  S
N841        C842   1.360       .  A
C842        H848   1.078       .  S
C843        N844   1.356       .  A
C843        H845   1.082       .  S
N844        C846   1.356       .  A
C846        H847   1.082       .  S
C851        C852   1.393       .  A
C851        C856   1.384       .  A
C851        H861   1.084       .  S
C852        C853   1.411       .  A
C852        C857   1.451       .  S
C853        C858   1.519       .  S
C853        C854   1.397       .  A
C854        C855   1.404       .  A
C854        H859   1.081       .  S
C855        C856   1.421       .  A
C856        C860   1.526       .  S
C857        C862   1.409       .  A
C857        C866   1.401       .  A
C858        F874   1.382       .  S
C858        F875   1.383       .  S
C858        F876   1.385       .  S
C860        F871   1.383       .  S
C860        F872   1.383       .  S
C860        F873   1.378       .  S
C862        C867   1.525       .  S
C862        C863   1.385       .  A
C863        C864   1.404       .  A
C863        H868   1.082       .  S
C864        C865   1.418       .  A
C865        C869   1.519       .  S
C865        C866   1.399       .  A
C866        H870   1.085       .  S
C867        F880   1.385       .  S
C867        F881   1.378       .  S
C867        F882   1.383       .  S
C869        F877   1.384       .  S
C869        F878   1.379       .  S
C869        F879   1.382       .  S
C883        C884   1.396       .  A
C883        C888   1.399       .  A
C883        H893   1.085       .  S
C884        C885   1.403       .  A
C884        C889   1.450       .  S
C885        C890   1.525       .  S
C885       C1212   1.383       .  A
C886       C1211   1.383       .  A
C886        C887   1.409       .  A
C886        H891   1.077       .  S
C887       C1214   1.431       .  A
C888       C1218   1.527   1_554  S
C888       C1213   1.431   1_554  A
C889        C894   1.408       .  A
C889        C898   1.400       .  A
C890        F906   1.380       .  S
C890        F907   1.383       .  S
C890        F908   1.385       .  S
C892       C1214   1.527       .  S
C892        F903   1.383       .  S
C892        F904   1.384       .  S
C892        F905   1.376       .  S
C894        C899   1.521       .  S
C894        C895   1.389       .  A
C895        C896   1.405       .  A
C895        H900   1.082       .  S
C896        C897   1.414       .  A
C897        C901   1.521       .  S
C897        C898   1.393       .  A
C898        H902   1.084       .  S
C899        F912   1.384       .  S
C899        F913   1.382       .  S
C899        F914   1.382       .  S
C901        F909   1.382       .  S
C901        F910   1.383       .  S
C901        F911   1.380       .  S
C915        C916   1.383       .  A
C915        C920   1.386       .  A
C915        H925   1.086       .  S
C916        C917   1.404       .  A
C916        C921   1.434       .  S
C917        C922   1.522       .  S
C917        C918   1.385       .  A
C918        C919   1.401       .  A
C918        H923   1.065       .  S
C919        C920   1.441       .  A
C920        C924   1.536       .  S
C921        C926   1.401       .  A
C921        C930   1.388       .  A
C922        F938   1.381       .  S
C922        F939   1.383       .  S
C922        F940   1.385       .  S
C924        F935   1.384       .  S
C924        F936   1.385       .  S
C924        F937   1.375       .  S
C926        C931   1.523       .  S
C926        C927   1.386       .  A
C927        C928   1.410       .  A
C927        H932   1.076       .  S
C928        C929   1.431       .  A
C929        C933   1.529       .  S
C929        C930   1.386       .  A
C930        H934   1.086       .  S
C931        F944   1.385       .  S
C931        F945   1.382       .  S
C931        F946   1.383       .  S
C933        F941   1.383       .  S
C933        F942   1.376       .  S
C933        F943   1.384       .  S
C947        C948   1.384       .  A
C947        C952   1.381       .  A
C947        H957   1.087       .  S
C948        C949   1.403       .  A
C948        C953   1.433       .  S
C949        C954   1.522       .  S
C949        C950   1.389       .  A
C950        C951   1.404       .  A
C950        H955   1.068       .  S
C951        C952   1.440       .  A
C952        C956   1.537       .  S
C953        C958   1.400       .  A
C953        C962   1.389       .  A
C954        F970   1.381       .  S
C954        F971   1.382       .  S
C954        F972   1.385       .  S
C956        F967   1.384       .  S
C956        F968   1.385       .  S
C956        F969   1.374       .  S
C958        C963   1.524       .  S
C958        C959   1.385       .  A
C959        C960   1.411       .  A
C959        H964   1.074       .  S
C960        C961   1.432       .  A
C961        C965   1.530       .  S
C961        C962   1.385       .  A
C962        H966   1.086       .  S
C963        F976   1.384       .  S
C963        F977   1.382       .  S
C963        F978   1.382       .  S
C965        F973   1.382       .  S
C965        F974   1.376       .  S
C965        F975   1.386       .  S
C979        C981   1.538       .  S
C979        C983   1.539       .  S
C979        C982   1.558       .  S
C979       C1286   1.495       .  S
C980        C984   1.543       .  S
C980        C986   1.520       .  S
C980        C985   1.519       .  S
C980       C1245   1.498       .  S
C981        C989   1.374       .  A
C982        C993   1.397       .  A
C983        C997   1.393       .  A
C984        C987   1.389       .  A
C985        C991   1.360       .  A
C986        C994   1.360       .  A
C987        N988   1.354   1_556  A
C987       H1000   1.080       .  S
N988       C1065   1.422       .  S
C989        H990   1.083       .  S
C991       H1001   1.083       .  S
N992        C993   1.361       .  A
N992       C1025   1.431       .  S
C993        H999   1.082       .  S
C994        H996   1.081       .  S
N995        C997   1.363       .  A
C997        H998   1.081       .  S
C1002      C1004   1.541       .  S
C1002      C1006   1.537       .  S
C1002      C1005   1.556       .  S
C1002      C1254   1.495       .  S
C1003      C1007   1.545       .  S
C1003      C1009   1.528       .  S
C1003      C1008   1.528       .  S
C1003      C1277   1.497       .  S
C1004      C1012   1.378       .  A
C1004      C1007   1.391       .  A
C1005      C1016   1.395       .  A
C1005      C1008   1.382       .  A
C1006      C1020   1.391       .  A
C1006      C1009   1.375       .  A
C1007      C1010   1.388       .  A
C1008      C1014   1.371       .  A
C1009      C1017   1.368       .  A
C1010      N1011   1.353       .  A
C1010      H1023   1.079       .  S
N1011      C1012   1.351       .  A
N1011      C1118   1.426       .  S
C1012      H1013   1.083       .  S
C1014      N1015   1.351       .  A
C1014      H1024   1.083       .  S
N1015      C1016   1.361       .  A
N1015      C1078   1.436       .  S
C1016      H1022   1.082       .  S
C1017      N1018   1.354       .  A
C1017      H1019   1.081       .  S
N1018      C1020   1.361       .  A
N1018      C1086   1.437       .  S
C1020      H1021   1.081       .  S
C1025      C1062   1.465       .  S
N1026      N1043   1.316       .  A
N1026      N1048   1.326       .  A
N1026     Co1063   2.096       .  S
C1027      N1052   1.340       .  A
C1027      H1072   1.081       .  S
C1027      C1065   1.453       .  S
H1028      C1069   1.081       .  S
C1029      N1053   1.331       .  A
C1029      H1058   1.081       .  S
C1029      C1033   1.458       .  S
Co1030     N2342   2.159       .  S
Co1030     N2024   2.075   1_455  S
Co1030    Cl2052   2.475   1_455  S
N1031      C1069   1.367       .  A
Co1032     N1035   2.085       .  S
Co1032     N1039   2.111       .  S
N1034      N1041   1.319       .  A
N1034      N1064   1.326       .  A
N1034     Co2371   2.093   1_455  S
N1035      N1053   1.325       .  A
N1036      C1065   1.347       .  A
N1036      N1046   1.323       .  A
H1037      C1062   1.081       .  S
N1038      N2363   1.345       .  A
N1038     Co2334   2.159       .  S
N1039      N1057   1.326       .  A
N1039      N1044   1.318       .  A
C1040      N1044   1.348       .  A
C1040      N1147   1.439       .  S
C1040      C1068   1.470       .  S
N1041      C1056   1.342       .  A
C1042      N1070   1.331       .  A
C1042      H1076   1.081       .  S
C1042      C1045   1.455       .  S
C1045      N1066   1.355       .  A
C1045      N1144   1.433       .  S
N1046      N1052   1.316       .  A
N1046     Co2008   2.075   1_554  S
N1047      C1073   1.365       .  A
N1047      N1701   1.323   1_455  A
N1047     Co1063   2.162       .  S
N1049      N1699   1.323   1_565  A
N1049      N1077   1.345       .  A
N1049     Co1067   2.157       .  S
H1050      C1073   1.081       .  S
H1051      C1068   1.082       .  S
N1053     Co1067   2.099       .  S
N1054      N1066   1.329       .  A
N1054      N1070   1.325       .  A
N1054     Co1063   2.092       .  S
C1055      N1711   1.370       .  A
C1055      C1069   1.491   1_545  S
C1055      C1766   1.563       .  S
C1056      H1060   1.081   1_565  S
C1056      C1075   1.452       .  S
N1057      C1068   1.353       .  A
N1057     Co1067   2.101       .  S
N1059      C1707   1.370   1_455  A
N1059      N2342   1.345       .  A
C1061      C2377   1.488       .  S
Co1063    Cl2378   2.466   1_455  S
N1064      C1075   1.351       .  A
Co1067     N2338   2.093       .  S
C1073      C2365   1.488   1_455  S
Cl1074    Co2008   2.475       .  S
Cl1074    Co2367   2.466       .  S
C1075      N1140   1.429       .  S
C1078      N1096   1.348       .  A
C1078      C1115   1.462       .  S
N1079      N1096   1.322       .  A
N1079      N1101   1.328       .  A
N1079     Co1116   2.112       .  S
C1080      N1105   1.340       .  A
C1080      H1125   1.081       .  S
C1080      C1118   1.458       .  S
H1081      C1122   1.081       .  S
C1082      N1106   1.333       .  A
C1082      H1111   1.081       .  S
C1082      C1086   1.453       .  S
Co1083     N1101   2.094       .  S
Co1083     N2395   2.161       .  S
Co1083     N1123   2.106       .  S
Co1083     N2403   2.083   1_455  S
Co1083    Cl2431   2.473   1_455  S
N1084      C1122   1.365       .  A
N1084     Co1085   2.160       .  S
Co1085     N1088   2.095       .  S
Co1085     N1092   2.100       .  S
C1086      N1124   1.354       .  A
N1087      N1094   1.318       .  A
N1087      N1117   1.322       .  A
N1087     Co2424   2.069   1_455  S
N1088      N1106   1.326       .  A
N1088      N1124   1.331       .  A
N1089      C1118   1.351       .  A
N1089      N1099   1.324       .  A
H1090      C1115   1.081       .  S
N1091      N2416   1.345       .  A
N1091     Co2387   2.161       .  S
N1092      N1110   1.328       .  A
N1092      N1097   1.319       .  A
C1093      N1097   1.344       .  A
C1093      N1170   1.431       .  S
C1093      C1121   1.463       .  S
N1094      C1109   1.341       .  A
C1095      N1123   1.333       .  A
C1095      H1129   1.080       .  S
C1095      C1098   1.456       .  S
C1098      N1119   1.355       .  A
C1098      N1167   1.439       .  S
N1099      N1105   1.317       .  A
N1099     Co2387   2.083       .  S
N1100      C1126   1.366       .  A
N1100      N1754   1.324   1_455  A
N1100     Co1116   2.169       .  S
N1101      C1115   1.348       .  A
N1102      N1752   1.324   1_565  A
N1102      N1130   1.346       .  A
N1102     Co1120   2.160       .  S
H1103      C1126   1.081       .  S
H1104      C1121   1.081       .  S
N1106     Co1120   2.100       .  S
N1107      N1119   1.332       .  A
N1107      N1123   1.327       .  A
N1107     Co1116   2.100       .  S
C1108      N1764   1.369       .  A
C1108      C1122   1.487   1_545  S
C1109      H1113   1.081   1_565  S
C1109      C1128   1.460       .  S
N1110      C1121   1.347       .  A
N1110     Co1120   2.090       .  S
N1112      C1760   1.369   1_455  A
N1112      N2395   1.345       .  A
C1114      N1782   1.370       .  A
C1114      C1707   1.563       .  S
C1114      C1126   1.489   1_655  S
Co1116    Cl2431   2.474   1_455  S
N1117      C1128   1.346       .  A
Co1120     N2391   2.069       .  S
Cl1127    Co2387   2.473       .  S
Cl1127    Co2420   2.474       .  S
C1128      N1163   1.423       .  S
N1130      C1766   1.370   1_565  A
C1131      C1133   1.565       .  S
C1131      C1135   1.554       .  S
C1131      C1134   1.529       .  S
C1131      C1190   1.508       .  S
C1132      C1136   1.528       .  S
C1132      C1138   1.544       .  S
C1132      C1137   1.517       .  S
C1132      C1213   1.514       .  S
C1133      C1141   1.386       .  A
C1133      C1136   1.389       .  A
C1134      C1145   1.388       .  A
C1134      C1137   1.373       .  A
C1135      C1149   1.399       .  A
C1135      C1138   1.395       .  A
C1136      C1139   1.382       .  A
C1137      C1143   1.364       .  A
C1138      C1146   1.366       .  A
C1139      N1140   1.354       .  A
C1139      H1152   1.081       .  S
N1140      C1141   1.352       .  A
C1141      H1142   1.081       .  S
C1143      N1144   1.354       .  A
C1143      H1153   1.082       .  S
N1144      C1145   1.359       .  A
C1145      H1151   1.082       .  S
C1146      N1147   1.348       .  A
C1146      H1148   1.082       .  S
N1147      C1149   1.363       .  A
C1149      H1150   1.079       .  S
C1154      C1156   1.548       .  S
C1154      C1158   1.536       .  S
C1154      C1157   1.549       .  S
C1154      C1222   1.503       .  S
C1155      C1159   1.520       .  S
C1155      C1161   1.536       .  S
C1155      C1160   1.537       .  S
C1155      C1181   1.505       .  S
C1156      C1164   1.384       .  A
C1156      C1159   1.382       .  A
C1157      C1168   1.393       .  A
C1157      C1160   1.387       .  A
C1158      C1172   1.382       .  A
C1158      C1161   1.387       .  A
C1159      C1162   1.376       .  A
C1160      C1166   1.369       .  A
C1161      C1169   1.375       .  A
C1162      N1163   1.352       .  A
C1162      H1175   1.082       .  S
N1163      C1164   1.352       .  A
C1164      H1165   1.082       .  S
C1166      N1167   1.352       .  A
C1166      H1176   1.080       .  S
N1167      C1168   1.360       .  A
C1168      H1174   1.078       .  S
C1169      N1170   1.356       .  A
C1169      H1171   1.082       .  S
N1170      C1172   1.356       .  A
C1172      H1173   1.082       .  S
C1177      C1178   1.393       .  A
C1177      C1182   1.384       .  A
C1177      H1187   1.084       .  S
C1178      C1179   1.411       .  A
C1178      C1183   1.451       .  S
C1179      C1184   1.519       .  S
C1179      C1180   1.397       .  A
C1180      C1181   1.404       .  A
C1180      H1185   1.081       .  S
C1181      C1182   1.421       .  A
C1182      C1186   1.526       .  S
C1183      C1188   1.409       .  A
C1183      C1192   1.401       .  A
C1184      F1200   1.382       .  S
C1184      F1201   1.383       .  S
C1184      F1202   1.385       .  S
C1186      F1197   1.383       .  S
C1186      F1198   1.383       .  S
C1186      F1199   1.378       .  S
C1188      C1193   1.525       .  S
C1188      C1189   1.385       .  A
C1189      C1190   1.404       .  A
C1189      H1194   1.082       .  S
C1190      C1191   1.418       .  A
C1191      C1195   1.519       .  S
C1191      C1192   1.399       .  A
C1192      H1196   1.085       .  S
C1193      F1206   1.385       .  S
C1193      F1207   1.378       .  S
C1193      F1208   1.383       .  S
C1195      F1203   1.384       .  S
C1195      F1204   1.379       .  S
C1195      F1205   1.382       .  S
C1209      C1210   1.396       .  A
C1209      C1214   1.399       .  A
C1209      H1219   1.085       .  S
C1210      C1211   1.403       .  A
C1210      C1215   1.450       .  S
C1211      C1216   1.525       .  S
C1212      C1213   1.409   1_554  A
C1212      H1217   1.077   1_554  S
C1215      C1220   1.408       .  A
C1215      C1224   1.400       .  A
C1216      F1232   1.380       .  S
C1216      F1233   1.383       .  S
C1216      F1234   1.385       .  S
C1218      F1229   1.383   1_556  S
C1218      F1230   1.384   1_556  S
C1218      F1231   1.376       .  S
C1220      C1225   1.521       .  S
C1220      C1221   1.389       .  A
C1221      C1222   1.405       .  A
C1221      H1226   1.082       .  S
C1222      C1223   1.414       .  A
C1223      C1227   1.521       .  S
C1223      C1224   1.393       .  A
C1224      H1228   1.084       .  S
C1225      F1238   1.384       .  S
C1225      F1239   1.382       .  S
C1225      F1240   1.382       .  S
C1227      F1235   1.382       .  S
C1227      F1236   1.383       .  S
C1227      F1237   1.380       .  S
C1241      C1242   1.383       .  A
C1241      C1246   1.386       .  A
C1241      H1251   1.086       .  S
C1242      C1243   1.404       .  A
C1242      C1247   1.434       .  S
C1243      C1248   1.522       .  S
C1243      C1244   1.385       .  A
C1244      C1245   1.401       .  A
C1244      H1249   1.065       .  S
C1245      C1246   1.441       .  A
C1246      C1250   1.536       .  S
C1247      C1252   1.401       .  A
C1247      C1256   1.388       .  A
C1248      F1264   1.381       .  S
C1248      F1265   1.383       .  S
C1248      F1266   1.385       .  S
C1250      F1261   1.384       .  S
C1250      F1262   1.385       .  S
C1250      F1263   1.375       .  S
C1252      C1257   1.523       .  S
C1252      C1253   1.386       .  A
C1253      C1254   1.410       .  A
C1253      H1258   1.076       .  S
C1254      C1255   1.431       .  A
C1255      C1259   1.529       .  S
C1255      C1256   1.386       .  A
C1256      H1260   1.086       .  S
C1257      F1270   1.385       .  S
C1257      F1271   1.382       .  S
C1257      F1272   1.383       .  S
C1259      F1267   1.383       .  S
C1259      F1268   1.376       .  S
C1259      F1269   1.384       .  S
C1273      C1274   1.384       .  A
C1273      C1278   1.381       .  A
C1273      H1283   1.087       .  S
C1274      C1275   1.403       .  A
C1274      C1279   1.433       .  S
C1275      C1280   1.522       .  S
C1275      C1276   1.389       .  A
C1276      C1277   1.404       .  A
C1276      H1281   1.068       .  S
C1277      C1278   1.440       .  A
C1278      C1282   1.537       .  S
C1279      C1284   1.400       .  A
C1279      C1288   1.389       .  A
C1280      F1296   1.381       .  S
C1280      F1297   1.382       .  S
C1280      F1298   1.385       .  S
C1282      F1293   1.384       .  S
C1282      F1294   1.385       .  S
C1282      F1295   1.374       .  S
C1284      C1289   1.524       .  S
C1284      C1285   1.385       .  A
C1285      C1286   1.411       .  A
C1285      H1290   1.074       .  S
C1286      C1287   1.432       .  A
C1287      C1291   1.530       .  S
C1287      C1288   1.385       .  A
C1288      H1292   1.086       .  S
C1289      F1302   1.384       .  S
C1289      F1303   1.382       .  S
C1289      F1304   1.382       .  S
C1291      F1299   1.382       .  S
C1291      F1300   1.376       .  S
C1291      F1301   1.386       .  S
C1305      C1307   1.538       .  S
C1305      C1309   1.539       .  S
C1305      C1308   1.558       .  S
C1305      C1612   1.495       .  S
C1306      C1310   1.543       .  S
C1306      C1312   1.520       .  S
C1306      C1311   1.519       .  S
C1306      C1571   1.498       .  S
C1307      C1315   1.374       .  A
C1307      C1636   1.388   1_554  A
C1308      C1319   1.397       .  A
C1308      C1637   1.382   1_554  A
C1309      C1323   1.393       .  A
C1309      C1638   1.377   1_554  A
C1310      C1633   1.388       .  A
C1310      C1313   1.389       .  A
C1311      C1634   1.382       .  A
C1311      C1317   1.360       .  A
C1312      C1635   1.377       .  A
C1312      C1320   1.360       .  A
C1313      N1314   1.354       .  A
C1313      H1326   1.080       .  S
N1314      C1641   1.347       .  A
N1314      C1391   1.422       .  S
C1315      N1640   1.347       .  A
C1315      H1316   1.083       .  S
C1317      N1644   1.350       .  A
C1317      H1327   1.083       .  S
N1318      C1643   1.350       .  A
N1318      C1319   1.361   1_556  A
N1318      C1351   1.431       .  S
C1319      H1325   1.082       .  S
C1320      N1647   1.350       .  A
C1320      H1322   1.081       .  S
N1321      C1646   1.350       .  A
N1321      C1323   1.363   1_556  A
N1321      C1685   1.434       .  S
C1323      H1324   1.081       .  S
C1328      C1330   1.541       .  S
C1328      C1332   1.537       .  S
C1328      C1331   1.556       .  S
C1328      C1580   1.495       .  S
C1329      C1333   1.545       .  S
C1329      C1335   1.528       .  S
C1329      C1334   1.528       .  S
C1329      C1603   1.497       .  S
C1330      C1338   1.378       .  A
C1330      C1333   1.391       .  A
C1331      C1342   1.395       .  A
C1331      C1334   1.382       .  A
C1332      C1346   1.391       .  A
C1332      C1335   1.375       .  A
C1333      C1336   1.388       .  A
C1334      C1340   1.371       .  A
C1335      C1343   1.368       .  A
C1336      N1337   1.353       .  A
C1336      H1349   1.079       .  S
N1337      C1338   1.351       .  A
N1337      C1444   1.426       .  S
C1338      H1339   1.083       .  S
C1340      N1341   1.351       .  A
C1340      H1350   1.083       .  S
N1341      C1342   1.361       .  A
N1341      C1404   1.436       .  S
C1342      H1348   1.082       .  S
C1343      N1344   1.354       .  A
C1343      H1345   1.081       .  S
N1344      C1346   1.361       .  A
N1344      C1412   1.437       .  S
C1346      H1347   1.081       .  S
C1351      N1695   1.342       .  A
C1351      C1388   1.465   1_556  S
N1352      N1369   1.316       .  A
N1352      N1374   1.326       .  A
N1352     Co1389   2.096       .  S
C1353      N1378   1.340       .  A
C1353      H1398   1.081   1_545  S
C1353      C1391   1.453       .  S
H1354      C1395   1.081       .  S
C1355      N1379   1.331       .  A
C1355      H1384   1.081       .  S
C1355      C1359   1.458       .  S
Co1356     N1700   2.092       .  S
Co1356     N1722   2.098       .  S
N1357      C1395   1.367       .  A
N1357      N2016   1.324   1_655  A
N1357     Co1684   2.172   1_554  S
Co1358     N1683   2.172       .  S
Co1358     N1361   2.085       .  S
Co1358     N2030   2.070       .  S
Co1358     N1365   2.111       .  S
Co1358    Cl2052   2.465       .  S
C1359      N1723   1.353       .  A
C1359      N1647   1.434       .  S
N1360      N1367   1.319       .  A
N1360      N1390   1.326       .  A
N1361      N1379   1.325       .  A
N1361      N1723   1.330       .  A
N1362      C1391   1.347       .  A
N1362      N1372   1.323       .  A
H1363      C1388   1.081       .  S
N1364      N2009   1.324   1_445  A
N1365      N1383   1.326       .  A
N1365      N1370   1.318       .  A
C1366      N1370   1.348       .  A
C1366      N1473   1.439       .  S
C1366      C1394   1.470       .  S
N1367      C1382   1.342       .  A
N1367     Co2041   2.079       .  S
C1368      N1396   1.331       .  A
C1368      H1402   1.081       .  S
C1368      C1371   1.455       .  S
N1369      C1677   1.342       .  A
C1371      N1392   1.355       .  A
C1371      N1470   1.433       .  S
N1372      N1378   1.316       .  A
N1373      C1399   1.365       .  A
N1373     Co1389   2.162       .  S
N1374      C1714   1.351       .  A
N1374     Co1682   2.092       .  S
N1375      N1403   1.345       .  A
N1375     Co1393   2.157       .  S
H1376      C1399   1.081       .  S
H1377      C1394   1.082       .  S
N1378     Co2010   2.070   1_545  S
N1379     Co1393   2.099       .  S
N1380      N1392   1.329       .  A
N1380      N1396   1.325       .  A
N1380     Co1389   2.092       .  S
C1381      C1395   1.491       .  S
C1382      H1386   1.081       .  S
C1382      C1401   1.452       .  S
N1383      C1394   1.353       .  A
N1383     Co1393   2.101       .  S
C1387      N2055   1.369   1_545  A
C1387      C2086   1.558       .  S
C1388      N1700   1.351   1_554  A
Co1389     N2019   2.079   1_545  S
N1390      C1401   1.351       .  A
Co1393    Cl2052   2.475       .  S
N1396     Co1682   2.098       .  S
N1397      C1685   1.353   1_554  A
N1397      N1687   1.330   1_554  A
Cl1400    Co2010   2.465   1_545  S
Cl1400    Co2045   2.475   1_545  S
C1401      N1466   1.429       .  S
N1403      C2039   1.369       .  A
C1404      N1422   1.348       .  A
C1404      C1441   1.462       .  S
N1405      N1422   1.322       .  A
N1405      N1427   1.328       .  A
N1405     Co1442   2.112       .  S
C1406      N1431   1.340       .  A
C1406      H1451   1.081       .  S
C1406      C1444   1.458       .  S
H1407      C1448   1.081       .  S
C1408      N1432   1.333       .  A
C1408      H1437   1.081       .  S
C1408      C1412   1.453       .  S
Co1409     N1427   2.094       .  S
Co1409     N1449   2.106       .  S
N1410      C1448   1.365       .  A
N1410      N2069   1.324   1_655  A
N1410     Co1411   2.160       .  S
Co1411     N1414   2.095       .  S
Co1411     N2083   2.079       .  S
Co1411     N1418   2.100       .  S
Co1411    Cl2105   2.474       .  S
C1412      N1450   1.354       .  A
N1413      N1420   1.318       .  A
N1413      N1443   1.322       .  A
N1414      N1432   1.326       .  A
N1414      N1450   1.331       .  A
N1415      C1444   1.351       .  A
N1415      N1425   1.324       .  A
H1416      C1441   1.081       .  S
N1417      N2062   1.324   1_445  A
N1418      N1436   1.328       .  A
N1418      N1423   1.319       .  A
C1419      N1423   1.344       .  A
C1419      N1496   1.431       .  S
C1419      C1447   1.463       .  S
N1420      C1435   1.341       .  A
N1420     Co2094   2.086       .  S
C1421      N1449   1.333       .  A
C1421      H1455   1.080       .  S
C1421      C1424   1.456       .  S
C1424      N1445   1.355       .  A
C1424      N1493   1.439       .  S
N1425      N1431   1.317       .  A
N1426      C1452   1.366       .  A
N1426     Co1442   2.169       .  S
N1427      C1441   1.348       .  A
N1428      N1456   1.346       .  A
N1428     Co1446   2.160       .  S
H1429      C1452   1.081       .  S
H1430      C1447   1.081       .  S
N1431     Co2063   2.079   1_545  S
N1432     Co1446   2.100       .  S
N1433      N1445   1.332       .  A
N1433      N1449   1.327       .  A
N1433     Co1442   2.100       .  S
C1434      C2039   1.558       .  S
C1434      C1448   1.487       .  S
C1435      H1439   1.081       .  S
C1435      C1454   1.460       .  S
N1436      C1447   1.347       .  A
N1436     Co1446   2.090       .  S
C1440      C1452   1.489       .  S
Co1442     N2072   2.086   1_545  S
N1443      C1454   1.346       .  A
Co1446    Cl2105   2.474       .  S
Cl1453    Co2063   2.474   1_545  S
Cl1453    Co2098   2.474   1_545  S
C1454      N1489   1.423       .  S
C1457      C1459   1.565       .  S
C1457      C1461   1.554       .  S
C1457      C1460   1.529       .  S
C1457      C1516   1.508       .  S
C1458      C1462   1.528       .  S
C1458      C1464   1.544       .  S
C1458      C1463   1.517       .  S
C1458      C1539   1.514       .  S
C1459      C1467   1.386       .  A
C1459      C1462   1.389       .  A
C1460      C1471   1.388       .  A
C1460      C1463   1.373       .  A
C1461      C1475   1.399       .  A
C1461      C1464   1.395       .  A
C1462      C1465   1.382       .  A
C1463      C1469   1.364       .  A
C1464      C1472   1.366       .  A
C1465      N1466   1.354       .  A
C1465      H1478   1.081       .  S
N1466      C1467   1.352       .  A
C1467      H1468   1.081       .  S
C1469      N1470   1.354       .  A
C1469      H1479   1.082       .  S
N1470      C1471   1.359       .  A
C1471      H1477   1.082       .  S
C1472      N1473   1.348       .  A
C1472      H1474   1.082       .  S
N1473      C1475   1.363       .  A
C1475      H1476   1.079       .  S
C1480      C1482   1.548       .  S
C1480      C1484   1.536       .  S
C1480      C1483   1.549       .  S
C1480      C1548   1.503       .  S
C1481      C1485   1.520       .  S
C1481      C1487   1.536       .  S
C1481      C1486   1.537       .  S
C1481      C1507   1.505       .  S
C1482      C1490   1.384       .  A
C1482      C1485   1.382       .  A
C1483      C1494   1.393       .  A
C1483      C1486   1.387       .  A
C1484      C1498   1.382       .  A
C1484      C1487   1.387       .  A
C1485      C1488   1.376       .  A
C1486      C1492   1.369       .  A
C1487      C1495   1.375       .  A
C1488      N1489   1.352       .  A
C1488      H1501   1.082       .  S
N1489      C1490   1.352       .  A
C1490      H1491   1.082       .  S
C1492      N1493   1.352       .  A
C1492      H1502   1.080       .  S
N1493      C1494   1.360       .  A
C1494      H1500   1.078       .  S
C1495      N1496   1.356       .  A
C1495      H1497   1.082       .  S
N1496      C1498   1.356       .  A
C1498      H1499   1.082       .  S
C1503      C1504   1.393       .  A
C1503      C1508   1.384       .  A
C1503      H1513   1.084       .  S
C1504      C1505   1.411       .  A
C1504      C1509   1.451       .  S
C1505      C1510   1.519       .  S
C1505      C1506   1.397       .  A
C1506      C1507   1.404       .  A
C1506      H1511   1.081       .  S
C1507      C1508   1.421       .  A
C1508      C1512   1.526       .  S
C1509      C1514   1.409       .  A
C1509      C1518   1.401       .  A
C1510      F1526   1.382       .  S
C1510      F1527   1.383       .  S
C1510      F1528   1.385       .  S
C1512      F1523   1.383       .  S
C1512      F1524   1.383       .  S
C1512      F1525   1.378       .  S
C1514      C1519   1.525       .  S
C1514      C1515   1.385       .  A
C1515      C1516   1.404       .  A
C1515      H1520   1.082       .  S
C1516      C1517   1.418       .  A
C1517      C1521   1.519       .  S
C1517      C1518   1.399       .  A
C1518      H1522   1.085       .  S
C1519      F1532   1.385       .  S
C1519      F1533   1.378       .  S
C1519      F1534   1.383       .  S
C1521      F1529   1.384       .  S
C1521      F1530   1.379       .  S
C1521      F1531   1.382       .  S
C1535      C1536   1.396       .  A
C1535      C1540   1.399       .  A
C1535      H1545   1.085       .  S
C1536      C1537   1.403       .  A
C1536      C1541   1.450       .  S
C1537      C1542   1.525       .  S
C1537      C1864   1.383       .  A
C1538      C1863   1.383       .  A
C1538      C1539   1.409       .  A
C1538      H1543   1.077       .  S
C1539      C1866   1.431       .  A
C1540      C1870   1.527   1_554  S
C1540      C1865   1.431   1_554  A
C1541      C1546   1.408       .  A
C1541      C1550   1.400       .  A
C1542      F1558   1.380       .  S
C1542      F1559   1.383       .  S
C1542      F1560   1.385       .  S
C1544      C1866   1.527       .  S
C1544      F1555   1.383       .  S
C1544      F1556   1.384       .  S
C1544      F1557   1.376       .  S
C1546      C1551   1.521       .  S
C1546      C1547   1.389       .  A
C1547      C1548   1.405       .  A
C1547      H1552   1.082       .  S
C1548      C1549   1.414       .  A
C1549      C1553   1.521       .  S
C1549      C1550   1.393       .  A
C1550      H1554   1.084       .  S
C1551      F1564   1.384       .  S
C1551      F1565   1.382       .  S
C1551      F1566   1.382       .  S
C1553      F1561   1.382       .  S
C1553      F1562   1.383       .  S
C1553      F1563   1.380       .  S
C1567      C1568   1.383       .  A
C1567      C1572   1.386       .  A
C1567      H1577   1.086       .  S
C1568      C1569   1.404       .  A
C1568      C1573   1.434       .  S
C1569      C1574   1.522       .  S
C1569      C1570   1.385       .  A
C1570      C1571   1.401       .  A
C1570      H1575   1.065       .  S
C1571      C1572   1.441       .  A
C1572      C1576   1.536       .  S
C1573      C1578   1.401       .  A
C1573      C1582   1.388       .  A
C1574      F1590   1.381       .  S
C1574      F1591   1.383       .  S
C1574      F1592   1.385       .  S
C1576      F1587   1.384       .  S
C1576      F1588   1.385       .  S
C1576      F1589   1.375       .  S
C1578      C1583   1.523       .  S
C1578      C1579   1.386       .  A
C1579      C1580   1.410       .  A
C1579      H1584   1.076       .  S
C1580      C1581   1.431       .  A
C1581      C1585   1.529       .  S
C1581      C1582   1.386       .  A
C1582      H1586   1.086       .  S
C1583      F1596   1.385       .  S
C1583      F1597   1.382       .  S
C1583      F1598   1.383       .  S
C1585      F1593   1.383       .  S
C1585      F1594   1.376       .  S
C1585      F1595   1.384       .  S
C1599      C1600   1.384       .  A
C1599      C1604   1.381       .  A
C1599      H1609   1.087       .  S
C1600      C1601   1.403       .  A
C1600      C1605   1.433       .  S
C1601      C1606   1.522       .  S
C1601      C1602   1.389       .  A
C1602      C1603   1.404       .  A
C1602      H1607   1.068       .  S
C1603      C1604   1.440       .  A
C1604      C1608   1.537       .  S
C1605      C1610   1.400       .  A
C1605      C1614   1.389       .  A
C1606      F1622   1.381       .  S
C1606      F1623   1.382       .  S
C1606      F1624   1.385       .  S
C1608      F1619   1.384       .  S
C1608      F1620   1.385       .  S
C1608      F1621   1.374       .  S
C1610      C1615   1.524       .  S
C1610      C1611   1.385       .  A
C1611      C1612   1.411       .  A
C1611      H1616   1.074       .  S
C1612      C1613   1.432       .  A
C1613      C1617   1.530       .  S
C1613      C1614   1.385       .  A
C1614      H1618   1.086       .  S
C1615      F1628   1.384       .  S
C1615      F1629   1.382       .  S
C1615      F1630   1.382       .  S
C1617      F1625   1.382       .  S
C1617      F1626   1.376       .  S
C1617      F1627   1.386       .  S
C1631      C1633   1.538       .  S
C1631      C1635   1.539       .  S
C1631      C1634   1.558       .  S
C1631      C1938   1.495       .  S
C1632      C1636   1.543       .  S
C1632      C1638   1.520       .  S
C1632      C1637   1.519       .  S
C1632      C1897   1.498       .  S
C1633      C1641   1.374       .  A
C1634      C1645   1.397       .  A
C1635      C1649   1.393       .  A
C1636      C1639   1.389       .  A
C1637      C1643   1.360       .  A
C1638      C1646   1.360       .  A
C1639      N1640   1.354   1_556  A
C1639      H1652   1.080       .  S
N1640      C1717   1.422       .  S
C1641      H1642   1.083       .  S
C1643      H1653   1.083       .  S
N1644      C1645   1.361       .  A
N1644      C1677   1.431       .  S
C1645      H1651   1.082       .  S
C1646      H1648   1.081       .  S
N1647      C1649   1.363       .  A
C1649      H1650   1.081       .  S
C1654      C1656   1.541       .  S
C1654      C1658   1.537       .  S
C1654      C1657   1.556       .  S
C1654      C1906   1.495       .  S
C1655      C1659   1.545       .  S
C1655      C1661   1.528       .  S
C1655      C1660   1.528       .  S
C1655      C1929   1.497       .  S
C1656      C1664   1.378       .  A
C1656      C1659   1.391       .  A
C1657      C1668   1.395       .  A
C1657      C1660   1.382       .  A
C1658      C1672   1.391       .  A
C1658      C1661   1.375       .  A
C1659      C1662   1.388       .  A
C1660      C1666   1.371       .  A
C1661      C1669   1.368       .  A
C1662      N1663   1.353       .  A
C1662      H1675   1.079       .  S
N1663      C1664   1.351       .  A
N1663      C1770   1.426       .  S
C1664      H1665   1.083       .  S
C1666      N1667   1.351       .  A
C1666      H1676   1.083       .  S
N1667      C1668   1.361       .  A
N1667      C1730   1.436       .  S
C1668      H1674   1.082       .  S
C1669      N1670   1.354       .  A
C1669      H1671   1.081       .  S
N1670      C1672   1.361       .  A
N1670      C1738   1.437       .  S
C1672      H1673   1.081       .  S
C1677      C1714   1.465       .  S
N1678      N1695   1.316       .  A
N1678      N1700   1.326       .  A
N1678     Co1715   2.096       .  S
C1679      N1704   1.340       .  A
C1679      H1724   1.081   1_545  S
C1679      C1717   1.453       .  S
H1680      C1721   1.081       .  S
C1681      N1705   1.331       .  A
C1681      H1710   1.081       .  S
C1681      C1685   1.458       .  S
N1683      C1721   1.367       .  A
N1683      N2342   1.324   1_655  A
Co1684     N1687   2.085       .  S
Co1684     N2356   2.070   1_556  S
Co1684     N1691   2.111       .  S
Co1684    Cl2378   2.465       .  S
N1686      N1693   1.319       .  A
N1686      N1716   1.326       .  A
N1687      N1705   1.325       .  A
N1688      C1717   1.347       .  A
N1688      N1698   1.323       .  A
H1689      C1714   1.081       .  S
N1690      N2335   1.324   1_445  A
N1691      N1709   1.326       .  A
N1691      N1696   1.318       .  A
C1692      N1696   1.348       .  A
C1692      N1799   1.439       .  S
C1692      C1720   1.470       .  S
N1693      C1708   1.342       .  A
N1693     Co2367   2.079       .  S
C1694      N1722   1.331       .  A
C1694      H1728   1.081       .  S
C1694      C1697   1.455       .  S
C1697      N1718   1.355       .  A
C1697      N1796   1.433       .  S
N1698      N1704   1.316       .  A
N1699      C1725   1.365       .  A
N1699     Co1715   2.162       .  S
N1701      N1729   1.345       .  A
N1701     Co1719   2.157       .  S
H1702      C1725   1.081       .  S
H1703      C1720   1.082       .  S
N1704     Co2336   2.070   1_544  S
N1705     Co1719   2.099       .  S
N1706      N1718   1.329       .  A
N1706      N1722   1.325       .  A
N1706     Co1715   2.092       .  S
C1707      C1721   1.491       .  S
C1708      H1712   1.081       .  S
C1708      C1727   1.452       .  S
N1709      C1720   1.353       .  A
N1709     Co1719   2.101       .  S
C1713      N2381   1.369   1_545  A
C1713      C2412   1.558       .  S
Co1715     N2345   2.079   1_545  S
N1716      C1727   1.351       .  A
Co1719    Cl2378   2.475       .  S
Cl1726    Co2336   2.465   1_545  S
Cl1726    Co2371   2.475   1_545  S
C1727      N1792   1.429       .  S
N1729      C2365   1.369       .  A
C1730      N1748   1.348       .  A
C1730      C1767   1.462       .  S
N1731      N1748   1.322       .  A
N1731      N1753   1.328       .  A
N1731     Co1768   2.112       .  S
C1732      N1757   1.340       .  A
C1732      H1777   1.081       .  S
C1732      C1770   1.458       .  S
H1733      C1774   1.081       .  S
C1734      N1758   1.333       .  A
C1734      H1763   1.081       .  S
C1734      C1738   1.453       .  S
Co1735     N1753   2.094       .  S
Co1735     N1775   2.106       .  S
N1736      C1774   1.365       .  A
N1736      N2395   1.324   1_655  A
N1736     Co1737   2.160       .  S
Co1737     N1740   2.095       .  S
Co1737     N2409   2.079       .  S
Co1737     N1744   2.100       .  S
Co1737    Cl2431   2.474       .  S
C1738      N1776   1.354       .  A
N1739      N1746   1.318       .  A
N1739      N1769   1.322       .  A
N1740      N1758   1.326       .  A
N1740      N1776   1.331       .  A
N1741      C1770   1.351       .  A
N1741      N1751   1.324       .  A
H1742      C1767   1.081       .  S
N1743      N2388   1.324   1_445  A
N1744      N1762   1.328       .  A
N1744      N1749   1.319       .  A
C1745      N1749   1.344       .  A
C1745      N1822   1.431       .  S
C1745      C1773   1.463       .  S
N1746      C1761   1.341       .  A
N1746     Co2420   2.086       .  S
C1747      N1775   1.333       .  A
C1747      H1781   1.080       .  S
C1747      C1750   1.456       .  S
C1750      N1771   1.355       .  A
C1750      N1819   1.439       .  S
N1751      N1757   1.317       .  A
N1752      C1778   1.366       .  A
N1752     Co1768   2.169       .  S
N1753      C1767   1.348       .  A
N1754      N1782   1.346       .  A
N1754     Co1772   2.160       .  S
H1755      C1778   1.081       .  S
H1756      C1773   1.081       .  S
N1757     Co2389   2.079   1_545  S
N1758     Co1772   2.100       .  S
N1759      N1771   1.332       .  A
N1759      N1775   1.327       .  A
N1759     Co1768   2.100       .  S
C1760      C2365   1.558       .  S
C1760      C1774   1.487       .  S
C1761      H1765   1.081       .  S
C1761      C1780   1.460       .  S
N1762      C1773   1.347       .  A
N1762     Co1772   2.090       .  S
C1766      C1778   1.489       .  S
Co1768     N2398   2.086   1_545  S
N1769      C1780   1.346       .  A
Co1772    Cl2431   2.474       .  S
Cl1779    Co2389   2.474   1_545  S
Cl1779    Co2424   2.474   1_545  S
C1780      N1815   1.423       .  S
C1783      C1785   1.565       .  S
C1783      C1787   1.554       .  S
C1783      C1786   1.529       .  S
C1783      C1842   1.508       .  S
C1784      C1788   1.528       .  S
C1784      C1790   1.544       .  S
C1784      C1789   1.517       .  S
C1784      C1865   1.514       .  S
C1785      C1793   1.386       .  A
C1785      C1788   1.389       .  A
C1786      C1797   1.388       .  A
C1786      C1789   1.373       .  A
C1787      C1801   1.399       .  A
C1787      C1790   1.395       .  A
C1788      C1791   1.382       .  A
C1789      C1795   1.364       .  A
C1790      C1798   1.366       .  A
C1791      N1792   1.354       .  A
C1791      H1804   1.081       .  S
N1792      C1793   1.352       .  A
C1793      H1794   1.081       .  S
C1795      N1796   1.354       .  A
C1795      H1805   1.082       .  S
N1796      C1797   1.359       .  A
C1797      H1803   1.082       .  S
C1798      N1799   1.348       .  A
C1798      H1800   1.082       .  S
N1799      C1801   1.363       .  A
C1801      H1802   1.079       .  S
C1806      C1808   1.548       .  S
C1806      C1810   1.536       .  S
C1806      C1809   1.549       .  S
C1806      C1874   1.503       .  S
C1807      C1811   1.520       .  S
C1807      C1813   1.536       .  S
C1807      C1812   1.537       .  S
C1807      C1833   1.505       .  S
C1808      C1816   1.384       .  A
C1808      C1811   1.382       .  A
C1809      C1820   1.393       .  A
C1809      C1812   1.387       .  A
C1810      C1824   1.382       .  A
C1810      C1813   1.387       .  A
C1811      C1814   1.376       .  A
C1812      C1818   1.369       .  A
C1813      C1821   1.375       .  A
C1814      N1815   1.352       .  A
C1814      H1827   1.082       .  S
N1815      C1816   1.352       .  A
C1816      H1817   1.082       .  S
C1818      N1819   1.352       .  A
C1818      H1828   1.080       .  S
N1819      C1820   1.360       .  A
C1820      H1826   1.078       .  S
C1821      N1822   1.356       .  A
C1821      H1823   1.082       .  S
N1822      C1824   1.356       .  A
C1824      H1825   1.082       .  S
C1829      C1830   1.393       .  A
C1829      C1834   1.384       .  A
C1829      H1839   1.084       .  S
C1830      C1831   1.411       .  A
C1830      C1835   1.451       .  S
C1831      C1836   1.519       .  S
C1831      C1832   1.397       .  A
C1832      C1833   1.404       .  A
C1832      H1837   1.081       .  S
C1833      C1834   1.421       .  A
C1834      C1838   1.526       .  S
C1835      C1840   1.409       .  A
C1835      C1844   1.401       .  A
C1836      F1852   1.382       .  S
C1836      F1853   1.383       .  S
C1836      F1854   1.385       .  S
C1838      F1849   1.383       .  S
C1838      F1850   1.383       .  S
C1838      F1851   1.378       .  S
C1840      C1845   1.525       .  S
C1840      C1841   1.385       .  A
C1841      C1842   1.404       .  A
C1841      H1846   1.082       .  S
C1842      C1843   1.418       .  A
C1843      C1847   1.519       .  S
C1843      C1844   1.399       .  A
C1844      H1848   1.085       .  S
C1845      F1858   1.385       .  S
C1845      F1859   1.378       .  S
C1845      F1860   1.383       .  S
C1847      F1855   1.384       .  S
C1847      F1856   1.379       .  S
C1847      F1857   1.382       .  S
C1861      C1862   1.396       .  A
C1861      C1866   1.399       .  A
C1861      H1871   1.085       .  S
C1862      C1863   1.403       .  A
C1862      C1867   1.450       .  S
C1863      C1868   1.525       .  S
C1864      C1865   1.409   1_554  A
C1864      H1869   1.077   1_554  S
C1867      C1872   1.408       .  A
C1867      C1876   1.400       .  A
C1868      F1884   1.380       .  S
C1868      F1885   1.383       .  S
C1868      F1886   1.385       .  S
C1870      F1881   1.383   1_556  S
C1870      F1882   1.384   1_556  S
C1870      F1883   1.376       .  S
C1872      C1877   1.521       .  S
C1872      C1873   1.389       .  A
C1873      C1874   1.405       .  A
C1873      H1878   1.082       .  S
C1874      C1875   1.414       .  A
C1875      C1879   1.521       .  S
C1875      C1876   1.393       .  A
C1876      H1880   1.084       .  S
C1877      F1890   1.384       .  S
C1877      F1891   1.382       .  S
C1877      F1892   1.382       .  S
C1879      F1887   1.382       .  S
C1879      F1888   1.383       .  S
C1879      F1889   1.380       .  S
C1893      C1894   1.383       .  A
C1893      C1898   1.386       .  A
C1893      H1903   1.086       .  S
C1894      C1895   1.404       .  A
C1894      C1899   1.434       .  S
C1895      C1900   1.522       .  S
C1895      C1896   1.385       .  A
C1896      C1897   1.401       .  A
C1896      H1901   1.065       .  S
C1897      C1898   1.441       .  A
C1898      C1902   1.536       .  S
C1899      C1904   1.401       .  A
C1899      C1908   1.388       .  A
C1900      F1916   1.381       .  S
C1900      F1917   1.383       .  S
C1900      F1918   1.385       .  S
C1902      F1913   1.384       .  S
C1902      F1914   1.385       .  S
C1902      F1915   1.375       .  S
C1904      C1909   1.523       .  S
C1904      C1905   1.386       .  A
C1905      C1906   1.410       .  A
C1905      H1910   1.076       .  S
C1906      C1907   1.431       .  A
C1907      C1911   1.529       .  S
C1907      C1908   1.386       .  A
C1908      H1912   1.086       .  S
C1909      F1922   1.385       .  S
C1909      F1923   1.382       .  S
C1909      F1924   1.383       .  S
C1911      F1919   1.383       .  S
C1911      F1920   1.376       .  S
C1911      F1921   1.384       .  S
C1925      C1926   1.384       .  A
C1925      C1930   1.381       .  A
C1925      H1935   1.087       .  S
C1926      C1927   1.403       .  A
C1926      C1931   1.433       .  S
C1927      C1932   1.522       .  S
C1927      C1928   1.389       .  A
C1928      C1929   1.404       .  A
C1928      H1933   1.068       .  S
C1929      C1930   1.440       .  A
C1930      C1934   1.537       .  S
C1931      C1936   1.400       .  A
C1931      C1940   1.389       .  A
C1932      F1948   1.381       .  S
C1932      F1949   1.382       .  S
C1932      F1950   1.385       .  S
C1934      F1945   1.384       .  S
C1934      F1946   1.385       .  S
C1934      F1947   1.374       .  S
C1936      C1941   1.524       .  S
C1936      C1937   1.385       .  A
C1937      C1938   1.411       .  A
C1937      H1942   1.074       .  S
C1938      C1939   1.432       .  A
C1939      C1943   1.530       .  S
C1939      C1940   1.385       .  A
C1940      H1944   1.086       .  S
C1941      F1954   1.384       .  S
C1941      F1955   1.382       .  S
C1941      F1956   1.382       .  S
C1943      F1951   1.382       .  S
C1943      F1952   1.376       .  S
C1943      F1953   1.386       .  S
C1957      C1959   1.538       .  S
C1957      C1961   1.539       .  S
C1957      C1960   1.558       .  S
C1957      C2264   1.495       .  S
C1958      C1962   1.543       .  S
C1958      C1964   1.520       .  S
C1958      C1963   1.519       .  S
C1958      C2223   1.498       .  S
C1959      C1967   1.374       .  A
C1959      C2288   1.388   1_554  A
C1960      C1971   1.397       .  A
C1960      C2289   1.382   1_554  A
C1961      C1975   1.393       .  A
C1961      C2290   1.377   1_554  A
C1962      C2285   1.388       .  A
C1962      C1965   1.389       .  A
C1963      C2286   1.382       .  A
C1963      C1969   1.360       .  A
C1964      C2287   1.377       .  A
C1964      C1972   1.360       .  A
C1965      N1966   1.354       .  A
C1965      H1978   1.080       .  S
N1966      C2293   1.347       .  A
N1966      C2043   1.422       .  S
C1967      N2292   1.347       .  A
C1967      H1968   1.083       .  S
C1969      N2296   1.350       .  A
C1969      H1979   1.083       .  S
N1970      C2295   1.350       .  A
N1970      C1971   1.361   1_556  A
N1970      C2003   1.431       .  S
C1971      H1977   1.082       .  S
C1972      N2299   1.350       .  A
C1972      H1974   1.081       .  S
N1973      C2298   1.350       .  A
N1973      C1975   1.363   1_556  A
N1973      C2337   1.434       .  S
C1975      H1976   1.081       .  S
C1980      C1982   1.541       .  S
C1980      C1984   1.537       .  S
C1980      C1983   1.556       .  S
C1980      C2232   1.495       .  S
C1981      C1985   1.545       .  S
C1981      C1987   1.528       .  S
C1981      C1986   1.528       .  S
C1981      C2255   1.497       .  S
C1982      C1990   1.378       .  A
C1982      C1985   1.391       .  A
C1983      C1994   1.395       .  A
C1983      C1986   1.382       .  A
C1984      C1998   1.391       .  A
C1984      C1987   1.375       .  A
C1985      C1988   1.388       .  A
C1986      C1992   1.371       .  A
C1987      C1995   1.368       .  A
C1988      N1989   1.353       .  A
C1988      H2001   1.079       .  S
N1989      C1990   1.351       .  A
N1989      C2096   1.426       .  S
C1990      H1991   1.083       .  S
C1992      N1993   1.351       .  A
C1992      H2002   1.083       .  S
N1993      C1994   1.361       .  A
N1993      C2056   1.436       .  S
C1994      H2000   1.082       .  S
C1995      N1996   1.354       .  A
C1995      H1997   1.081       .  S
N1996      C1998   1.361       .  A
N1996      C2064   1.437       .  S
C1998      H1999   1.081       .  S
C2003      N2347   1.342       .  A
C2003      C2040   1.465   1_556  S
N2004      N2021   1.316       .  A
N2004      N2026   1.326       .  A
N2004     Co2041   2.096       .  S
C2005      N2030   1.340       .  A
C2005      H2050   1.081       .  S
C2005      C2043   1.453       .  S
H2006      C2047   1.081       .  S
C2007      N2031   1.331       .  A
C2007      H2036   1.081       .  S
C2007      C2011   1.458       .  S
Co2008     N2352   2.092       .  S
Co2008     N2374   2.098       .  S
N2009      C2047   1.367       .  A
N2009     Co2336   2.172   1_554  S
Co2010     N2335   2.172       .  S
Co2010     N2013   2.085       .  S
Co2010     N2017   2.111       .  S
C2011      N2375   1.353       .  A
C2011      N2299   1.434       .  S
N2012      N2019   1.319       .  A
N2012      N2042   1.326       .  A
N2013      N2031   1.325       .  A
N2013      N2375   1.330       .  A
N2014      C2043   1.347       .  A
N2014      N2024   1.323       .  A
H2015      C2040   1.081       .  S
N2017      N2035   1.326       .  A
N2017      N2022   1.318       .  A
C2018      N2022   1.348       .  A
C2018      N2125   1.439       .  S
C2018      C2046   1.470       .  S
N2019      C2034   1.342       .  A
C2020      N2048   1.331       .  A
C2020      H2054   1.081       .  S
C2020      C2023   1.455       .  S
N2021      C2329   1.342       .  A
C2023      N2044   1.355       .  A
C2023      N2122   1.433       .  S
N2024      N2030   1.316       .  A
N2025      C2051   1.365       .  A
N2025     Co2041   2.162       .  S
N2026      C2366   1.351       .  A
N2026     Co2334   2.092       .  S
N2027      N2055   1.345       .  A
N2027     Co2045   2.157       .  S
H2028      C2051   1.081       .  S
H2029      C2046   1.082       .  S
N2031     Co2045   2.099       .  S
N2032      N2044   1.329       .  A
N2032      N2048   1.325       .  A
N2032     Co2041   2.092       .  S
C2033      C2047   1.491   1_545  S
C2034      H2038   1.081   1_565  S
C2034      C2053   1.452       .  S
N2035      C2046   1.353       .  A
N2035     Co2045   2.101       .  S
C2040      N2352   1.351   1_554  A
N2042      C2053   1.351       .  A
N2048     Co2334   2.098       .  S
N2049      C2337   1.353   1_554  A
N2049      N2339   1.330   1_554  A
C2053      N2118   1.429       .  S
C2056      N2074   1.348       .  A
C2056      C2093   1.462       .  S
N2057      N2074   1.322       .  A
N2057      N2079   1.328       .  A
N2057     Co2094   2.112       .  S
C2058      N2083   1.340       .  A
C2058      H2103   1.081       .  S
C2058      C2096   1.458       .  S
H2059      C2100   1.081       .  S
C2060      N2084   1.333       .  A
C2060      H2089   1.081       .  S
C2060      C2064   1.453       .  S
Co2061     N2079   2.094       .  S
Co2061     N2101   2.106       .  S
N2062      C2100   1.365       .  A
N2062     Co2063   2.160       .  S
Co2063     N2066   2.095       .  S
Co2063     N2070   2.100       .  S
C2064      N2102   1.354       .  A
N2065      N2072   1.318       .  A
N2065      N2095   1.322       .  A
N2066      N2084   1.326       .  A
N2066      N2102   1.331       .  A
N2067      C2096   1.351       .  A
N2067      N2077   1.324       .  A
H2068      C2093   1.081       .  S
N2070      N2088   1.328       .  A
N2070      N2075   1.319       .  A
C2071      N2075   1.344       .  A
C2071      N2148   1.431       .  S
C2071      C2099   1.463       .  S
N2072      C2087   1.341       .  A
C2073      N2101   1.333       .  A
C2073      H2107   1.080       .  S
C2073      C2076   1.456       .  S
C2076      N2097   1.355       .  A
C2076      N2145   1.439       .  S
N2077      N2083   1.317       .  A
N2078      C2104   1.366       .  A
N2078     Co2094   2.169       .  S
N2079      C2093   1.348       .  A
N2080      N2108   1.346       .  A
N2080     Co2098   2.160       .  S
H2081      C2104   1.081       .  S
H2082      C2099   1.081       .  S
N2084     Co2098   2.100       .  S
N2085      N2097   1.332       .  A
N2085      N2101   1.327       .  A
N2085     Co2094   2.100       .  S
C2086      C2100   1.487   1_545  S
C2087      H2091   1.081   1_565  S
C2087      C2106   1.460       .  S
N2088      C2099   1.347       .  A
N2088     Co2098   2.090       .  S
C2092      C2104   1.489       .  S
N2095      C2106   1.346       .  A
C2106      N2141   1.423       .  S
C2109      C2111   1.565       .  S
C2109      C2113   1.554       .  S
C2109      C2112   1.529       .  S
C2109      C2168   1.508       .  S
C2110      C2114   1.528       .  S
C2110      C2116   1.544       .  S
C2110      C2115   1.517       .  S
C2110      C2191   1.514       .  S
C2111      C2119   1.386       .  A
C2111      C2114   1.389       .  A
C2112      C2123   1.388       .  A
C2112      C2115   1.373       .  A
C2113      C2127   1.399       .  A
C2113      C2116   1.395       .  A
C2114      C2117   1.382       .  A
C2115      C2121   1.364       .  A
C2116      C2124   1.366       .  A
C2117      N2118   1.354       .  A
C2117      H2130   1.081       .  S
N2118      C2119   1.352       .  A
C2119      H2120   1.081       .  S
C2121      N2122   1.354       .  A
C2121      H2131   1.082       .  S
N2122      C2123   1.359       .  A
C2123      H2129   1.082       .  S
C2124      N2125   1.348       .  A
C2124      H2126   1.082       .  S
N2125      C2127   1.363       .  A
C2127      H2128   1.079       .  S
C2132      C2134   1.548       .  S
C2132      C2136   1.536       .  S
C2132      C2135   1.549       .  S
C2132      C2200   1.503       .  S
C2133      C2137   1.520       .  S
C2133      C2139   1.536       .  S
C2133      C2138   1.537       .  S
C2133      C2159   1.505       .  S
C2134      C2142   1.384       .  A
C2134      C2137   1.382       .  A
C2135      C2146   1.393       .  A
C2135      C2138   1.387       .  A
C2136      C2150   1.382       .  A
C2136      C2139   1.387       .  A
C2137      C2140   1.376       .  A
C2138      C2144   1.369       .  A
C2139      C2147   1.375       .  A
C2140      N2141   1.352       .  A
C2140      H2153   1.082       .  S
N2141      C2142   1.352       .  A
C2142      H2143   1.082       .  S
C2144      N2145   1.352       .  A
C2144      H2154   1.080       .  S
N2145      C2146   1.360       .  A
C2146      H2152   1.078       .  S
C2147      N2148   1.356       .  A
C2147      H2149   1.082       .  S
N2148      C2150   1.356       .  A
C2150      H2151   1.082       .  S
C2155      C2156   1.393       .  A
C2155      C2160   1.384       .  A
C2155      H2165   1.084       .  S
C2156      C2157   1.411       .  A
C2156      C2161   1.451       .  S
C2157      C2162   1.519       .  S
C2157      C2158   1.397       .  A
C2158      C2159   1.404       .  A
C2158      H2163   1.081       .  S
C2159      C2160   1.421       .  A
C2160      C2164   1.526       .  S
C2161      C2166   1.409       .  A
C2161      C2170   1.401       .  A
C2162      F2178   1.382       .  S
C2162      F2179   1.383       .  S
C2162      F2180   1.385       .  S
C2164      F2175   1.383       .  S
C2164      F2176   1.383       .  S
C2164      F2177   1.378       .  S
C2166      C2171   1.525       .  S
C2166      C2167   1.385       .  A
C2167      C2168   1.404       .  A
C2167      H2172   1.082       .  S
C2168      C2169   1.418       .  A
C2169      C2173   1.519       .  S
C2169      C2170   1.399       .  A
C2170      H2174   1.085       .  S
C2171      F2184   1.385       .  S
C2171      F2185   1.378       .  S
C2171      F2186   1.383       .  S
C2173      F2181   1.384       .  S
C2173      F2182   1.379       .  S
C2173      F2183   1.382       .  S
C2187      C2188   1.396       .  A
C2187      C2192   1.399       .  A
C2187      H2197   1.085       .  S
C2188      C2189   1.403       .  A
C2188      C2193   1.450       .  S
C2189      C2194   1.525       .  S
C2189      C2516   1.383       .  A
C2190      C2515   1.383       .  A
C2190      C2191   1.409       .  A
C2190      H2195   1.077       .  S
C2191      C2518   1.431       .  A
C2192      C2522   1.527   1_554  S
C2192      C2517   1.431   1_554  A
C2193      C2198   1.408       .  A
C2193      C2202   1.400       .  A
C2194      F2210   1.380       .  S
C2194      F2211   1.383       .  S
C2194      F2212   1.385       .  S
C2196      C2518   1.527       .  S
C2196      F2207   1.383       .  S
C2196      F2208   1.384       .  S
C2196      F2209   1.376       .  S
C2198      C2203   1.521       .  S
C2198      C2199   1.389       .  A
C2199      C2200   1.405       .  A
C2199      H2204   1.082       .  S
C2200      C2201   1.414       .  A
C2201      C2205   1.521       .  S
C2201      C2202   1.393       .  A
C2202      H2206   1.084       .  S
C2203      F2216   1.384       .  S
C2203      F2217   1.382       .  S
C2203      F2218   1.382       .  S
C2205      F2213   1.382       .  S
C2205      F2214   1.383       .  S
C2205      F2215   1.380       .  S
C2219      C2220   1.383       .  A
C2219      C2224   1.386       .  A
C2219      H2229   1.086       .  S
C2220      C2221   1.404       .  A
C2220      C2225   1.434       .  S
C2221      C2226   1.522       .  S
C2221      C2222   1.385       .  A
C2222      C2223   1.401       .  A
C2222      H2227   1.065       .  S
C2223      C2224   1.441       .  A
C2224      C2228   1.536       .  S
C2225      C2230   1.401       .  A
C2225      C2234   1.388       .  A
C2226      F2242   1.381       .  S
C2226      F2243   1.383       .  S
C2226      F2244   1.385       .  S
C2228      F2239   1.384       .  S
C2228      F2240   1.385       .  S
C2228      F2241   1.375       .  S
C2230      C2235   1.523       .  S
C2230      C2231   1.386       .  A
C2231      C2232   1.410       .  A
C2231      H2236   1.076       .  S
C2232      C2233   1.431       .  A
C2233      C2237   1.529       .  S
C2233      C2234   1.386       .  A
C2234      H2238   1.086       .  S
C2235      F2248   1.385       .  S
C2235      F2249   1.382       .  S
C2235      F2250   1.383       .  S
C2237      F2245   1.383       .  S
C2237      F2246   1.376       .  S
C2237      F2247   1.384       .  S
C2251      C2252   1.384       .  A
C2251      C2256   1.381       .  A
C2251      H2261   1.087       .  S
C2252      C2253   1.403       .  A
C2252      C2257   1.433       .  S
C2253      C2258   1.522       .  S
C2253      C2254   1.389       .  A
C2254      C2255   1.404       .  A
C2254      H2259   1.068       .  S
C2255      C2256   1.440       .  A
C2256      C2260   1.537       .  S
C2257      C2262   1.400       .  A
C2257      C2266   1.389       .  A
C2258      F2274   1.381       .  S
C2258      F2275   1.382       .  S
C2258      F2276   1.385       .  S
C2260      F2271   1.384       .  S
C2260      F2272   1.385       .  S
C2260      F2273   1.374       .  S
C2262      C2267   1.524       .  S
C2262      C2263   1.385       .  A
C2263      C2264   1.411       .  A
C2263      H2268   1.074       .  S
C2264      C2265   1.432       .  A
C2265      C2269   1.530       .  S
C2265      C2266   1.385       .  A
C2266      H2270   1.086       .  S
C2267      F2280   1.384       .  S
C2267      F2281   1.382       .  S
C2267      F2282   1.382       .  S
C2269      F2277   1.382       .  S
C2269      F2278   1.376       .  S
C2269      F2279   1.386       .  S
C2283      C2285   1.538       .  S
C2283      C2287   1.539       .  S
C2283      C2286   1.558       .  S
C2283      C2590   1.495       .  S
C2284      C2288   1.543       .  S
C2284      C2290   1.520       .  S
C2284      C2289   1.519       .  S
C2284      C2549   1.498       .  S
C2285      C2293   1.374       .  A
C2286      C2297   1.397       .  A
C2287      C2301   1.393       .  A
C2288      C2291   1.389       .  A
C2289      C2295   1.360       .  A
C2290      C2298   1.360       .  A
C2291      N2292   1.354   1_556  A
C2291      H2304   1.080       .  S
N2292      C2369   1.422       .  S
C2293      H2294   1.083       .  S
C2295      H2305   1.083       .  S
N2296      C2297   1.361       .  A
N2296      C2329   1.431       .  S
C2297      H2303   1.082       .  S
C2298      H2300   1.081       .  S
N2299      C2301   1.363       .  A
C2301      H2302   1.081       .  S
C2306      C2308   1.541       .  S
C2306      C2310   1.537       .  S
C2306      C2309   1.556       .  S
C2306      C2558   1.495       .  S
C2307      C2311   1.545       .  S
C2307      C2313   1.528       .  S
C2307      C2312   1.528       .  S
C2307      C2581   1.497       .  S
C2308      C2316   1.378       .  A
C2308      C2311   1.391       .  A
C2309      C2320   1.395       .  A
C2309      C2312   1.382       .  A
C2310      C2324   1.391       .  A
C2310      C2313   1.375       .  A
C2311      C2314   1.388       .  A
C2312      C2318   1.371       .  A
C2313      C2321   1.368       .  A
C2314      N2315   1.353       .  A
C2314      H2327   1.079       .  S
N2315      C2316   1.351       .  A
N2315      C2422   1.426       .  S
C2316      H2317   1.083       .  S
C2318      N2319   1.351       .  A
C2318      H2328   1.083       .  S
N2319      C2320   1.361       .  A
N2319      C2382   1.436       .  S
C2320      H2326   1.082       .  S
C2321      N2322   1.354       .  A
C2321      H2323   1.081       .  S
N2322      C2324   1.361       .  A
N2322      C2390   1.437       .  S
C2324      H2325   1.081       .  S
C2329      C2366   1.465       .  S
N2330      N2347   1.316       .  A
N2330      N2352   1.326       .  A
N2330     Co2367   2.096       .  S
C2331      N2356   1.340       .  A
C2331      H2376   1.081       .  S
C2331      C2369   1.453       .  S
H2332      C2373   1.081       .  S
C2333      N2357   1.331       .  A
C2333      H2362   1.081       .  S
C2333      C2337   1.458       .  S
N2335      C2373   1.367       .  A
Co2336     N2339   2.085       .  S
Co2336     N2343   2.111       .  S
N2338      N2345   1.319       .  A
N2338      N2368   1.326       .  A
N2339      N2357   1.325       .  A
N2340      C2369   1.347       .  A
N2340      N2350   1.323       .  A
H2341      C2366   1.081       .  S
N2343      N2361   1.326       .  A
N2343      N2348   1.318       .  A
C2344      N2348   1.348       .  A
C2344      N2451   1.439       .  S
C2344      C2372   1.470       .  S
N2345      C2360   1.342       .  A
C2346      N2374   1.331       .  A
C2346      H2380   1.081       .  S
C2346      C2349   1.455       .  S
C2349      N2370   1.355       .  A
C2349      N2448   1.433       .  S
N2350      N2356   1.316       .  A
N2351      C2377   1.365       .  A
N2351     Co2367   2.162       .  S
N2353      N2381   1.345       .  A
N2353     Co2371   2.157       .  S
H2354      C2377   1.081       .  S
H2355      C2372   1.082       .  S
N2357     Co2371   2.099       .  S
N2358      N2370   1.329       .  A
N2358      N2374   1.325       .  A
N2358     Co2367   2.092       .  S
C2359      C2373   1.491   1_545  S
C2360      H2364   1.081   1_565  S
C2360      C2379   1.452       .  S
N2361      C2372   1.353       .  A
N2361     Co2371   2.101       .  S
N2368      C2379   1.351       .  A
C2379      N2444   1.429       .  S
C2382      N2400   1.348       .  A
C2382      C2419   1.462       .  S
N2383      N2400   1.322       .  A
N2383      N2405   1.328       .  A
N2383     Co2420   2.112       .  S
C2384      N2409   1.340       .  A
C2384      H2429   1.081       .  S
C2384      C2422   1.458       .  S
H2385      C2426   1.081       .  S
C2386      N2410   1.333       .  A
C2386      H2415   1.081       .  S
C2386      C2390   1.453       .  S
Co2387     N2405   2.094       .  S
Co2387     N2427   2.106       .  S
N2388      C2426   1.365       .  A
N2388     Co2389   2.160       .  S
Co2389     N2392   2.095       .  S
Co2389     N2396   2.100       .  S
C2390      N2428   1.354       .  A
N2391      N2398   1.318       .  A
N2391      N2421   1.322       .  A
N2392      N2410   1.326       .  A
N2392      N2428   1.331       .  A
N2393      C2422   1.351       .  A
N2393      N2403   1.324       .  A
H2394      C2419   1.081       .  S
N2396      N2414   1.328       .  A
N2396      N2401   1.319       .  A
C2397      N2401   1.344       .  A
C2397      N2474   1.431       .  S
C2397      C2425   1.463       .  S
N2398      C2413   1.341       .  A
C2399      N2427   1.333       .  A
C2399      H2433   1.080       .  S
C2399      C2402   1.456       .  S
C2402      N2423   1.355       .  A
C2402      N2471   1.439       .  S
N2403      N2409   1.317       .  A
N2404      C2430   1.366       .  A
N2404     Co2420   2.169       .  S
N2405      C2419   1.348       .  A
N2406      N2434   1.346       .  A
N2406     Co2424   2.160       .  S
H2407      C2430   1.081       .  S
H2408      C2425   1.081       .  S
N2410     Co2424   2.100       .  S
N2411      N2423   1.332       .  A
N2411      N2427   1.327       .  A
N2411     Co2420   2.100       .  S
C2412      C2426   1.487   1_545  S
C2413      H2417   1.081   1_565  S
C2413      C2432   1.460       .  S
N2414      C2425   1.347       .  A
N2414     Co2424   2.090       .  S
C2418      C2430   1.489       .  S
N2421      C2432   1.346       .  A
C2432      N2467   1.423       .  S
C2435      C2437   1.565       .  S
C2435      C2439   1.554       .  S
C2435      C2438   1.529       .  S
C2435      C2494   1.508       .  S
C2436      C2440   1.528       .  S
C2436      C2442   1.544       .  S
C2436      C2441   1.517       .  S
C2436      C2517   1.514       .  S
C2437      C2445   1.386       .  A
C2437      C2440   1.389       .  A
C2438      C2449   1.388       .  A
C2438      C2441   1.373       .  A
C2439      C2453   1.399       .  A
C2439      C2442   1.395       .  A
C2440      C2443   1.382       .  A
C2441      C2447   1.364       .  A
C2442      C2450   1.366       .  A
C2443      N2444   1.354       .  A
C2443      H2456   1.081       .  S
N2444      C2445   1.352       .  A
C2445      H2446   1.081       .  S
C2447      N2448   1.354       .  A
C2447      H2457   1.082       .  S
N2448      C2449   1.359       .  A
C2449      H2455   1.082       .  S
C2450      N2451   1.348       .  A
C2450      H2452   1.082       .  S
N2451      C2453   1.363       .  A
C2453      H2454   1.079       .  S
C2458      C2460   1.548       .  S
C2458      C2462   1.536       .  S
C2458      C2461   1.549       .  S
C2458      C2526   1.503       .  S
C2459      C2463   1.520       .  S
C2459      C2465   1.536       .  S
C2459      C2464   1.537       .  S
C2459      C2485   1.505       .  S
C2460      C2468   1.384       .  A
C2460      C2463   1.382       .  A
C2461      C2472   1.393       .  A
C2461      C2464   1.387       .  A
C2462      C2476   1.382       .  A
C2462      C2465   1.387       .  A
C2463      C2466   1.376       .  A
C2464      C2470   1.369       .  A
C2465      C2473   1.375       .  A
C2466      N2467   1.352       .  A
C2466      H2479   1.082       .  S
N2467      C2468   1.352       .  A
C2468      H2469   1.082       .  S
C2470      N2471   1.352       .  A
C2470      H2480   1.080       .  S
N2471      C2472   1.360       .  A
C2472      H2478   1.078       .  S
C2473      N2474   1.356       .  A
C2473      H2475   1.082       .  S
N2474      C2476   1.356       .  A
C2476      H2477   1.082       .  S
C2481      C2482   1.393       .  A
C2481      C2486   1.384       .  A
C2481      H2491   1.084       .  S
C2482      C2483   1.411       .  A
C2482      C2487   1.451       .  S
C2483      C2488   1.519       .  S
C2483      C2484   1.397       .  A
C2484      C2485   1.404       .  A
C2484      H2489   1.081       .  S
C2485      C2486   1.421       .  A
C2486      C2490   1.526       .  S
C2487      C2492   1.409       .  A
C2487      C2496   1.401       .  A
C2488      F2504   1.382       .  S
C2488      F2505   1.383       .  S
C2488      F2506   1.385       .  S
C2490      F2501   1.383       .  S
C2490      F2502   1.383       .  S
C2490      F2503   1.378       .  S
C2492      C2497   1.525       .  S
C2492      C2493   1.385       .  A
C2493      C2494   1.404       .  A
C2493      H2498   1.082       .  S
C2494      C2495   1.418       .  A
C2495      C2499   1.519       .  S
C2495      C2496   1.399       .  A
C2496      H2500   1.085       .  S
C2497      F2510   1.385       .  S
C2497      F2511   1.378       .  S
C2497      F2512   1.383       .  S
C2499      F2507   1.384       .  S
C2499      F2508   1.379       .  S
C2499      F2509   1.382       .  S
C2513      C2514   1.396       .  A
C2513      C2518   1.399       .  A
C2513      H2523   1.085       .  S
C2514      C2515   1.403       .  A
C2514      C2519   1.450       .  S
C2515      C2520   1.525       .  S
C2516      C2517   1.409   1_554  A
C2516      H2521   1.077   1_554  S
C2519      C2524   1.408       .  A
C2519      C2528   1.400       .  A
C2520      F2536   1.380       .  S
C2520      F2537   1.383       .  S
C2520      F2538   1.385       .  S
C2522      F2533   1.383   1_556  S
C2522      F2534   1.384   1_556  S
C2522      F2535   1.376       .  S
C2524      C2529   1.521       .  S
C2524      C2525   1.389       .  A
C2525      C2526   1.405       .  A
C2525      H2530   1.082       .  S
C2526      C2527   1.414       .  A
C2527      C2531   1.521       .  S
C2527      C2528   1.393       .  A
C2528      H2532   1.084       .  S
C2529      F2542   1.384       .  S
C2529      F2543   1.382       .  S
C2529      F2544   1.382       .  S
C2531      F2539   1.382       .  S
C2531      F2540   1.383       .  S
C2531      F2541   1.380       .  S
C2545      C2546   1.383       .  A
C2545      C2550   1.386       .  A
C2545      H2555   1.086       .  S
C2546      C2547   1.404       .  A
C2546      C2551   1.434       .  S
C2547      C2552   1.522       .  S
C2547      C2548   1.385       .  A
C2548      C2549   1.401       .  A
C2548      H2553   1.065       .  S
C2549      C2550   1.441       .  A
C2550      C2554   1.536       .  S
C2551      C2556   1.401       .  A
C2551      C2560   1.388       .  A
C2552      F2568   1.381       .  S
C2552      F2569   1.383       .  S
C2552      F2570   1.385       .  S
C2554      F2565   1.384       .  S
C2554      F2566   1.385       .  S
C2554      F2567   1.375       .  S
C2556      C2561   1.523       .  S
C2556      C2557   1.386       .  A
C2557      C2558   1.410       .  A
C2557      H2562   1.076       .  S
C2558      C2559   1.431       .  A
C2559      C2563   1.529       .  S
C2559      C2560   1.386       .  A
C2560      H2564   1.086       .  S
C2561      F2574   1.385       .  S
C2561      F2575   1.382       .  S
C2561      F2576   1.383       .  S
C2563      F2571   1.383       .  S
C2563      F2572   1.376       .  S
C2563      F2573   1.384       .  S
C2577      C2578   1.384       .  A
C2577      C2582   1.381       .  A
C2577      H2587   1.087       .  S
C2578      C2579   1.403       .  A
C2578      C2583   1.433       .  S
C2579      C2584   1.522       .  S
C2579      C2580   1.389       .  A
C2580      C2581   1.404       .  A
C2580      H2585   1.068       .  S
C2581      C2582   1.440       .  A
C2582      C2586   1.537       .  S
C2583      C2588   1.400       .  A
C2583      C2592   1.389       .  A
C2584      F2600   1.381       .  S
C2584      F2601   1.382       .  S
C2584      F2602   1.385       .  S
C2586      F2597   1.384       .  S
C2586      F2598   1.385       .  S
C2586      F2599   1.374       .  S
C2588      C2593   1.524       .  S
C2588      C2589   1.385       .  A
C2589      C2590   1.411       .  A
C2589      H2594   1.074       .  S
C2590      C2591   1.432       .  A
C2591      C2595   1.530       .  S
C2591      C2592   1.385       .  A
C2592      H2596   1.086       .  S
C2593      F2606   1.384       .  S
C2593      F2607   1.382       .  S
C2593      F2608   1.382       .  S
C2595      F2603   1.382       .  S
C2595      F2604   1.376       .  S
C2595      F2605   1.386       .  S
