geometry optimzed in LAMMPS
_audit_creation_date              2020-11-30 
_audit_creation_method            'lammps2cif' 
_symmetry_space_group_name_H-M    'P1' 
_symmetry_Int_Tables_number       1 
_symmetry_cell_setting            triclinic 
loop_ 
_symmetry_equiv_pos_as_xyz 
  x,y,z 
_cell_length_a                    43.41834134 
_cell_length_b                    37.353513901163886 
_cell_length_c                    27.53168258208033 
_cell_angle_alpha                 92.95420452784947 
_cell_angle_beta                  90.15419297684419 
_cell_angle_gamma                 125.73759248193971 
loop_ 
_atom_site_label 
_atom_site_type_symbol 
_atom_site_fract_x 
_atom_site_fract_y 
_atom_site_fract_z 
_atom_site_charge 
C1          C  0.34077353  0.17655826  0.04149105     0.33100
C2          C  0.34057157  0.17592077  0.44250990     0.33100
C3          C  0.30175302  0.15348381  0.01573541    -0.03100
C4          C  0.36346303  0.22202734  0.02033127    -0.03900
C5          C  0.35710269  0.15398195  0.01617781    -0.03800
C6          C  0.30142057  0.15311563  0.46502804    -0.03100
C7          C  0.36340346  0.22177404  0.46964476    -0.03900
C8          C  0.35718979  0.15359153  0.46547118    -0.03800
C9          C  0.26439340  0.13428533  0.44928407    -0.29100
N10         N  0.24289354  0.12344422  0.48910025     0.17400
C11         C  0.26527616  0.13495602  0.02971045    -0.29200
H12         H  0.25582888  0.13118317  0.06664099     0.19300
C13         C  0.38516841  0.26519445  0.45768413    -0.28100
N14         N  0.39814290  0.29123796  0.99967263     0.16100
C15         C  0.38518138  0.26547018  0.03811479    -0.28100
C16         C  0.37573386  0.13522431  0.45024281    -0.28400
N17         N  0.38649207  0.12470998  0.49035227     0.16600
H18         H  0.38175501  0.13084715  0.41316338     0.19200
C19         C  0.37531850  0.13595093  0.03065239    -0.28400
H20         H  0.38092073  0.13228367  0.06772118     0.19200
H21         H  0.39116222  0.27750309  0.07599800     0.19200
H22         H  0.25407263  0.12985603  0.41206562     0.19300
H23         H  0.39115038  0.27699138  0.42139919     0.19200
C24         C  0.34076824  0.17655997  0.29149207     0.33100
C25         C  0.34058596  0.17594588  0.19251258     0.33100
C26         C  0.30175212  0.15348550  0.26572525    -0.03100
C27         C  0.36345818  0.22203628  0.27034623    -0.03900
C28         C  0.35710938  0.15399723  0.26617974    -0.03800
C29         C  0.30142831  0.15312810  0.21501903    -0.03100
C30         C  0.36341003  0.22179588  0.21965999    -0.03900
C31         C  0.35720718  0.15361988  0.21547365    -0.03800
C32         C  0.26440450  0.13431644  0.19926930    -0.29100
N33         N  0.24290004  0.12347739  0.23908185     0.17400
C34         C  0.26527594  0.13497208  0.27969368    -0.29200
H35         H  0.25582602  0.13120301  0.31662262     0.19300
C36         C  0.38518499  0.26522252  0.20771466    -0.28100
N37         N  0.39815236  0.29125717  0.24971167     0.16100
C38         C  0.38517674  0.26547637  0.28814358    -0.28100
C39         C  0.37577815  0.13528563  0.20024716    -0.28400
N40         N  0.38654124  0.12477656  0.24035607     0.16600
H41         H  0.38181644  0.13093030  0.16316926     0.19200
C42         C  0.37534543  0.13599032  0.28065594    -0.28400
H43         H  0.38094892  0.13232460  0.31772650     0.19200
H44         H  0.39114982  0.27749816  0.32602919     0.19200
H45         H  0.25409113  0.12990489  0.16205117     0.19300
H46         H  0.39117947  0.27702858  0.17143562     0.19200
C47         C  0.13170307  0.06465726  0.00878938     0.79500
Tb48       Tb  0.46134892  0.01333118  0.03971109     1.80700
O49         O  0.12292592  0.06803142  0.05141465    -0.48500
O50         O  0.08109070  0.49086231  0.09850101    -0.55900
C51         C  0.05397402  0.10279737  0.06173851     0.95400
O52         O  0.44997852  0.06748419  0.05266366    -0.55400
Tb53       Tb  0.05699595  0.01394018  0.04020364     1.78100
O54         O  0.39525481  0.46095692  0.02712086    -0.55900
O55         O  0.50021076  0.44397496  0.02272666    -0.74800
O56         O  0.07038419  0.08367209  0.05860282    -0.74100
O57         O  0.03557725  0.01491136  0.46314473    -0.59300
C58         C  0.46458191  0.42451749  0.01797728     0.95000
O59         O  0.48333428  0.01382174  0.11695723    -0.71300
C60         C  0.38640841  0.96179637  0.07040782     0.78400
C61         C  0.08060371  0.46272777  0.07062127     0.79400
O62         O  0.10344514  0.03768011  0.48079943    -0.56900
O63         O  0.06685965  0.45844331  0.02866073    -0.48500
O64         O  0.48222068  0.01178236  0.46252656    -0.74500
O65         O  0.03536838  0.01422918  0.11729383    -0.58500
C66         C  0.00925828  0.01387685  0.13848649     0.93200
C67         C  0.00901951  0.01354110  0.44148150     0.94400
C68         C  0.43836554  0.06540721  0.50999013     0.78700
O69         O  0.41466812  0.98666812  0.09922940    -0.47900
O70         O  0.43964405  0.53901878  0.48123009    -0.49000
O71         O  0.44810942  0.44353437  0.02210952    -0.61900
O72         O  0.01838974  0.08340500  0.05611855    -0.63000
C73         C  0.13171277  0.06470287  0.25878624     0.79500
Tb74       Tb  0.46137967  0.01338368  0.28970601     1.80700
O75         O  0.12293916  0.06809153  0.30140923    -0.48500
O76         O  0.08120214  0.49099016  0.34848013    -0.55900
C77         C  0.05398828  0.10283574  0.31179651     0.95400
O78         O  0.45001928  0.06754462  0.30266455    -0.55400
Tb79       Tb  0.05701039  0.01398141  0.29021846     1.78100
O80         O  0.39528497  0.46102477  0.27708637    -0.55900
O81         O  0.50022872  0.44399938  0.27279225    -0.74800
O82         O  0.07039260  0.08370467  0.30865381    -0.74100
O83         O  0.03560762  0.01496078  0.21314936    -0.59300
C84         C  0.46460168  0.42454850  0.26802259     0.95000
O85         O  0.48332525  0.01382035  0.36695933    -0.71300
C86         C  0.38642892  0.96185778  0.32036999     0.78400
C87         C  0.08064352  0.46279314  0.32062536     0.79400
O88         O  0.10345289  0.03770518  0.23080919    -0.56500
O89         O  0.06681539  0.45843541  0.27870123    -0.48500
O90         O  0.48224649  0.01182095  0.21252266    -0.74500
O91         O  0.03536441  0.01423886  0.36730150    -0.58500
C92         C  0.00924405  0.01386657  0.38849027     0.93200
C93         C  0.00904569  0.01357857  0.19148061     0.94400
C94         C  0.43842733  0.06548967  0.25998382     0.78700
O95         O  0.41468329  0.98672210  0.34920091    -0.47900
O96         O  0.43971192  0.53910835  0.23121868    -0.49000
O97         O  0.44813816  0.44357927  0.27211539    -0.61900
O98         O  0.01840770  0.08345368  0.30616108    -0.63000
C99         C  0.17748633  0.35090277  0.03822883     0.33100
C100        C  0.17779657  0.35150010  0.13720930     0.33100
C101        C  0.16146198  0.37377756  0.06367463    -0.03100
C102        C  0.15459281  0.30541556  0.05935543    -0.03900
C103        C  0.21649760  0.37364482  0.06389061    -0.03800
C104        C  0.16145633  0.37415147  0.11438074    -0.03100
C105        C  0.15471473  0.30564219  0.11004174    -0.03900
C106        C  0.21689251  0.37402146  0.11460076    -0.03800
C107        C  0.14330209  0.39292437  0.12981352    -0.29100
N108        N  0.13266481  0.40367342  0.08981690     0.17400
C109        C  0.14353547  0.39219692  0.04938626    -0.29200
H110        H  0.13790712  0.39595837  0.01237412     0.19300
C111        C  0.13315430  0.26220007  0.12195827    -0.28100
N112        N  0.12021877  0.23616606  0.07995125     0.16100
C113        C  0.13302552  0.26197527  0.04153737    -0.28100
C114        C  0.25385030  0.39236153  0.13022276    -0.28400
N115        N  0.27523953  0.40284723  0.09033340     0.16600
H116        H  0.26418453  0.39667480  0.16740949     0.19200
C117        C  0.25285725  0.39161690  0.04979448    -0.28400
H118        H  0.26221410  0.39520434  0.01282706     0.19200
H119        H  0.12715564  0.24997662  0.00364808     0.19200
H120        H  0.13743557  0.39739931  0.16694959     0.19300
H121        H  0.12739162  0.25038520  0.15823572     0.19200
C122        C  0.17748798  0.35090999  0.28822929     0.33100
C123        C  0.17781445  0.35154151  0.38721219     0.33100
C124        C  0.16146562  0.37379146  0.31366476    -0.03100
C125        C  0.15460107  0.30543330  0.30937584    -0.03900
C126        C  0.21650367  0.37366406  0.31388296    -0.03800
C127        C  0.16146822  0.37418252  0.36437262    -0.03100
C128        C  0.15473095  0.30567774  0.36006239    -0.03900
C129        C  0.21690790  0.37405857  0.36459455    -0.03800
C130        C  0.14332881  0.39297515  0.37979957    -0.29100
N131        N  0.13269342  0.40372019  0.33979661     0.17400
C132        C  0.14354959  0.39222119  0.29936948    -0.29200
H133        H  0.13792248  0.39598023  0.26235292     0.19300
C134        C  0.13317246  0.26224207  0.37199964    -0.28100
N135        N  0.12023214  0.23619568  0.33000187     0.16100
C136        C  0.13303207  0.26198919  0.29157620    -0.28100
C137        C  0.25387181  0.39241631  0.38020838    -0.28400
N138        N  0.27525441  0.40289413  0.34031168     0.16600
H139        H  0.26421391  0.39674778  0.41739150     0.19200
C140        C  0.25286213  0.39164238  0.29977852    -0.28400
H141        H  0.26221275  0.39522122  0.26280586     0.19200
H142        H  0.12715592  0.24997615  0.25368781     0.19200
H143        H  0.13747673  0.39747104  0.41692846     0.19300
H144        H  0.12741538  0.25044137  0.40827796     0.19200
C145        C  0.17746259  0.35085859  0.48464576    -0.10200
C146        C  0.17772565  0.35137021  0.44075738    -0.11700
C147        C  0.17770656  0.35132595  0.19075421    -0.10200
C148        C  0.17745290  0.35083846  0.23464451    -0.11700
C149        C  0.09727404  0.18983425  0.32640260    -0.10200
C150        C  0.07748313  0.14999572  0.32131247    -0.11700
C151        C  0.31424797  0.42171006  0.33969556    -0.10200
C152        C  0.34762820  0.43888642  0.33426550    -0.11700
C153        C  0.11283975  0.42280348  0.33903842    -0.10200
C154        C  0.09671292  0.44000406  0.33380125    -0.11700
C155        C  0.07746598  0.14996225  0.07123696    -0.10200
C156        C  0.09725785  0.18980242  0.07633238    -0.11700
C157        C  0.34761122  0.43882725  0.08431209    -0.10200
C158        C  0.31423102  0.42165446  0.08973074    -0.11700
C159        C  0.09666317  0.43993152  0.08381594    -0.10200
C160        C  0.11279544  0.42273801  0.08906152    -0.11700
C161        C  0.40660763  0.10592928  0.24133825    -0.10200
C162        C  0.42271530  0.08869994  0.24675341    -0.11700
C163        C  0.44114429  0.37742441  0.25842100    -0.10200
C164        C  0.42130471  0.33760253  0.25330601    -0.11700
C165        C  0.20385814  0.10440635  0.23957738    -0.10200
C166        C  0.17047836  0.08726597  0.24492600    -0.11700
C167        C  0.40654217  0.10584269  0.49133685    -0.10200
C168        C  0.42264490  0.08860819  0.49675847    -0.11700
C169        C  0.44113187  0.37739982  0.00835981    -0.10200
C170        C  0.42129302  0.33758036  0.00325033    -0.11700
C171        C  0.17046902  0.08721377  0.99493840    -0.10200
C172        C  0.20384960  0.10435782  0.98959775    -0.11700
C173        C  0.34064466  0.17611337  0.38896510    -0.10200
C174        C  0.34079603  0.17663024  0.34507670    -0.11700
C175        C  0.34081334  0.17664573  0.09507755    -0.10200
C176        C  0.34066662  0.17614213  0.13896748    -0.11700
C177        C  0.34077331  0.17655829  0.54149139     0.33100
C178        C  0.34057121  0.17592073  0.94250958     0.33100
C179        C  0.30175296  0.15348413  0.51573531    -0.03100
C180        C  0.36346319  0.22202736  0.52033167    -0.03900
C181        C  0.35710234  0.15398172  0.51617858    -0.03800
C182        C  0.30142034  0.15311532  0.96502812    -0.03100
C183        C  0.36340298  0.22177406  0.96964432    -0.03900
C184        C  0.35718984  0.15359176  0.96547038    -0.03800
C185        C  0.26439320  0.13428526  0.94928474    -0.29100
N186        N  0.24289352  0.12344416  0.98910096     0.17400
C187        C  0.26527598  0.13495618  0.52971001    -0.29200
H188        H  0.25582855  0.13118319  0.56664012     0.19300
C189        C  0.38516772  0.26519455  0.95768372    -0.28100
N190        N  0.39814345  0.29123799  0.49967285     0.16100
C191        C  0.38518163  0.26547030  0.53811532    -0.28100
C192        C  0.37573358  0.13522429  0.95024167    -0.28400
N193        N  0.38649202  0.12470986  0.99035069     0.16600
H194        H  0.38175445  0.13084675  0.91316105     0.19200
C195        C  0.37531825  0.13595092  0.53065372    -0.28400
H196        H  0.38092042  0.13228399  0.56772228     0.19200
H197        H  0.39116207  0.27750294  0.57599741     0.19200
H198        H  0.25407205  0.12985612  0.91206529     0.19300
H199        H  0.39114955  0.27699153  0.92139910     0.19200
C200        C  0.34076723  0.17655946  0.79149200     0.33100
C201        C  0.34058520  0.17594562  0.69251268     0.33100
C202        C  0.30175108  0.15348451  0.76572508    -0.03100
C203        C  0.36345680  0.22203588  0.77034641    -0.03900
C204        C  0.35710886  0.15399724  0.76617977    -0.03800
C205        C  0.30142740  0.15312722  0.71501884    -0.03100
C206        C  0.36340882  0.22179556  0.71966017    -0.03900
C207        C  0.35720676  0.15362000  0.71547374    -0.03800
C208        C  0.26440361  0.13431518  0.69926912    -0.29100
N209        N  0.24289893  0.12347575  0.73908137     0.17400
C210        C  0.26527483  0.13497064  0.77969324    -0.29200
H211        H  0.25582465  0.13120147  0.81662278     0.19300
C212        C  0.38518363  0.26522220  0.70771490    -0.28100
N213        N  0.39815073  0.29125683  0.74971198     0.16100
C214        C  0.38517505  0.26547592  0.78814366    -0.28100
C215        C  0.37577817  0.13528629  0.70024730    -0.28400
N216        N  0.38654146  0.12477743  0.74035613     0.16600
H217        H  0.38181665  0.13093122  0.66316931     0.19200
C218        C  0.37534529  0.13599072  0.78065614    -0.28400
H219        H  0.38094860  0.13232503  0.81772585     0.19200
H220        H  0.39114828  0.27749803  0.82603032     0.19200
H221        H  0.25409003  0.12990366  0.66204986     0.19300
H222        H  0.39117836  0.27702830  0.67143588     0.19200
C223        C  0.13170315  0.06465720  0.50878812     0.79500
Tb224      Tb  0.46134929  0.01333142  0.53971097     1.80700
O225        O  0.12292638  0.06803103  0.55141374    -0.48500
O226        O  0.08109122  0.49086236  0.59850104    -0.55900
C227        C  0.05397427  0.10279722  0.56173849     0.95400
O228        O  0.44997723  0.06748280  0.55266553    -0.55400
Tb229      Tb  0.05699640  0.01394004  0.54020346     1.78100
O230        O  0.39525507  0.46095752  0.52711939    -0.55900
O231        O  0.50021097  0.44397503  0.52272622    -0.74800
O232        O  0.07038434  0.08367185  0.55860232    -0.74100
O233        O  0.03557720  0.01491224  0.96314489    -0.59300
C234        C  0.46458213  0.42451762  0.51797653     0.95000
O235        O  0.48333460  0.01382165  0.61695689    -0.71300
C236        C  0.38640857  0.96179597  0.57040658     0.78400
C237        C  0.08060449  0.46272797  0.57062138     0.79400
O238        O  0.10344528  0.03767978  0.98080058    -0.56900
O239        O  0.06686048  0.45844347  0.52866080    -0.48500
O240        O  0.48222003  0.01178191  0.96252648    -0.74500
O241        O  0.03536867  0.01422909  0.61729356    -0.58500
C242        C  0.00925845  0.01387664  0.63848620     0.93200
C243        C  0.00901913  0.01354126  0.94148152     0.94400
C244        C  0.43836485  0.06540631  0.00998874     0.78700
O245        O  0.41466808  0.98666680  0.59922874    -0.47900
O246        O  0.43964162  0.53901594  0.98122977    -0.49000
O247        O  0.44810966  0.44353456  0.52210865    -0.61900
O248        O  0.01838999  0.08340498  0.55611907    -0.63000
C249        C  0.13171177  0.06470202  0.75878562     0.79500
Tb250      Tb  0.46137942  0.01338390  0.78970555     1.80700
O251        O  0.12293826  0.06809217  0.80140819    -0.48500
O252        O  0.08120247  0.49099050  0.84847999    -0.55900
C253        C  0.05398794  0.10283551  0.81179614     0.95400
O254        O  0.45001879  0.06754458  0.80266414    -0.55400
Tb255      Tb  0.05700957  0.01398070  0.79021864     1.78100
O256        O  0.39528450  0.46102691  0.77708630    -0.55900
O257        O  0.50022761  0.44399912  0.77279280    -0.74800
O258        O  0.07039196  0.08370408  0.80865378    -0.74100
O259        O  0.03560757  0.01496040  0.71314922    -0.59300
C260        C  0.46460059  0.42454827  0.76802238     0.95000
O261        O  0.48332524  0.01382098  0.86695911    -0.71300
C262        C  0.38642894  0.96185844  0.82037054     0.78400
C263        C  0.08064326  0.46279297  0.82062537     0.79400
O264        O  0.10345184  0.03770286  0.73080935    -0.56500
O265        O  0.06681419  0.45843449  0.77870168    -0.48500
O266        O  0.48224660  0.01182086  0.71252240    -0.74500
O267        O  0.03536376  0.01423817  0.86730168    -0.58500
C268        C  0.00924370  0.01386658  0.88849027     0.93200
C269        C  0.00904579  0.01357828  0.69148039     0.94400
C270        C  0.43842729  0.06549013  0.75998331     0.78700
O271        O  0.41468368  0.98672115  0.84920142    -0.47900
O272        O  0.43971232  0.53910924  0.73121794    -0.49000
O273        O  0.44813712  0.44357911  0.77211443    -0.61900
O274        O  0.01840745  0.08345382  0.80616037    -0.63000
C275        C  0.17748649  0.35090260  0.53822861     0.33100
C276        C  0.17779714  0.35149977  0.63720908     0.33100
C277        C  0.16146231  0.37377738  0.56367482    -0.03100
C278        C  0.15459311  0.30541533  0.55935517    -0.03900
C279        C  0.21649781  0.37364469  0.56389013    -0.03800
C280        C  0.16145675  0.37415118  0.61438093    -0.03100
C281        C  0.15471531  0.30564190  0.61004143    -0.03900
C282        C  0.21689295  0.37402124  0.61460025    -0.03800
C283        C  0.14330291  0.39292435  0.62981322    -0.29100
N284        N  0.13266564  0.40367373  0.58981769     0.17400
C285        C  0.14353608  0.39219727  0.54938599    -0.29200
H286        H  0.13790838  0.39595856  0.51237801     0.19300
C287        C  0.13315496  0.26219970  0.62195806    -0.28100
N288        N  0.12021922  0.23616579  0.57995085     0.16100
C289        C  0.13302574  0.26197500  0.54153686    -0.28100
C290        C  0.25385075  0.39236124  0.63022179    -0.28400
N291        N  0.27523980  0.40284717  0.59033241     0.16600
H292        H  0.26418524  0.39667432  0.66740902     0.19200
C293        C  0.25285743  0.39161693  0.54979342    -0.28400
H294        H  0.26221382  0.39520436  0.51282714     0.19200
H295        H  0.12715578  0.24997668  0.50364854     0.19200
H296        H  0.13743591  0.39739982  0.66695358     0.19300
H297        H  0.12739256  0.25038510  0.65823444     0.19200
C298        C  0.17748850  0.35090990  0.78822926     0.33100
C299        C  0.17781435  0.35154123  0.88721216     0.33100
C300        C  0.16146592  0.37379131  0.81366440    -0.03100
C301        C  0.15460155  0.30543318  0.80937568    -0.03900
C302        C  0.21650406  0.37366399  0.81388336    -0.03800
C303        C  0.16146827  0.37418233  0.86437239    -0.03100
C304        C  0.15473104  0.30567750  0.86006226    -0.03900
C305        C  0.21690794  0.37405838  0.86459497    -0.03800
C306        C  0.14332907  0.39297512  0.87979858    -0.29100
N307        N  0.13269385  0.40372044  0.83979601     0.17400
C308        C  0.14355028  0.39222137  0.79936927    -0.29200
H309        H  0.13792324  0.39598092  0.76235071     0.19300
C310        C  0.13317270  0.26224183  0.87199926    -0.28100
N311        N  0.12023280  0.23619549  0.83000150     0.16100
C312        C  0.13303290  0.26198913  0.79157594    -0.28100
C313        C  0.25387171  0.39241624  0.88020924    -0.28400
N314        N  0.27525466  0.40289418  0.84031297     0.16600
H315        H  0.26421370  0.39674787  0.91739308     0.19200
C316        C  0.25286267  0.39164243  0.79977937    -0.28400
H317        H  0.26221356  0.39522142  0.76280737     0.19200
H318        H  0.12715695  0.24997615  0.75368733     0.19200
H319        H  0.13747637  0.39747137  0.91693049     0.19300
H320        H  0.12741525  0.25044087  0.90827805     0.19200
C321        C  0.17746250  0.35085856  0.98464588    -0.10200
C322        C  0.17772539  0.35136990  0.94075745    -0.11700
C323        C  0.17770736  0.35132560  0.69075406    -0.10200
C324        C  0.17745364  0.35083823  0.73464439    -0.11700
C325        C  0.09727436  0.18983405  0.82640211    -0.10200
C326        C  0.07748310  0.14999549  0.82131200    -0.11700
C327        C  0.31424826  0.42171052  0.83969724    -0.10200
C328        C  0.34762850  0.43888715  0.83426684    -0.11700
C329        C  0.11284021  0.42280380  0.83903764    -0.10200
C330        C  0.09671319  0.44000429  0.83380078    -0.11700
C331        C  0.07746629  0.14996203  0.57123679    -0.10200
C332        C  0.09725818  0.18980222  0.57633199    -0.11700
C333        C  0.34761132  0.43882680  0.58431059    -0.10200
C334        C  0.31423124  0.42165426  0.58972939    -0.11700
C335        C  0.09666407  0.43993188  0.58381626    -0.10200
C336        C  0.11279631  0.42273837  0.58906208    -0.11700
C337        C  0.40660794  0.10593024  0.74133823    -0.10200
C338        C  0.42271547  0.08870068  0.74675307    -0.11700
C339        C  0.44114311  0.37742411  0.75842113    -0.10200
C340        C  0.42130330  0.33760219  0.75330629    -0.11700
C341        C  0.20385707  0.10440496  0.73957667    -0.10200
C342        C  0.17047731  0.08726492  0.74492520    -0.11700
C343        C  0.40654165  0.10584195  0.99133490    -0.10200
C344        C  0.42264410  0.08860709  0.99675656    -0.11700
C345        C  0.44113207  0.37739992  0.50835926    -0.10200
C346        C  0.42129339  0.33758039  0.50325026    -0.11700
C347        C  0.17046896  0.08721362  0.49493676    -0.10200
C348        C  0.20384960  0.10435774  0.48959649    -0.11700
C349        C  0.34064387  0.17611303  0.88896484    -0.10200
C350        C  0.34079496  0.17662965  0.84507649    -0.11700
C351        C  0.34081292  0.17664575  0.59507778    -0.10200
C352        C  0.34066606  0.17614210  0.63896766    -0.11700
C353        C  0.34077356  0.67655821  0.04149104     0.33100
C354        C  0.34057163  0.67592082  0.44250990     0.33100
C355        C  0.30175306  0.65348376  0.01573539    -0.03100
C356        C  0.36346300  0.72202729  0.02033127    -0.03900
C357        C  0.35710275  0.65398197  0.01617778    -0.03800
C358        C  0.30142066  0.65311573  0.46502806    -0.03100
C359        C  0.36340352  0.72177407  0.46964475    -0.03900
C360        C  0.35718981  0.65359152  0.46547117    -0.03800
C361        C  0.26439349  0.63428528  0.44928411    -0.29100
N362        N  0.24289360  0.62344414  0.48910021     0.17400
C363        C  0.26527623  0.63495610  0.02971041    -0.29200
H364        H  0.25582892  0.63118328  0.06664122     0.19300
C365        C  0.38516837  0.76519449  0.45768412    -0.28100
N366        N  0.39814300  0.79123794  0.99967262     0.16100
C367        C  0.38518134  0.76547015  0.03811491    -0.28100
C368        C  0.37573382  0.63522424  0.45024285    -0.28400
N369        N  0.38649198  0.62470987  0.49035226     0.16600
H370        H  0.38175511  0.63084715  0.41316309     0.19200
C371        C  0.37531842  0.63595079  0.03065237    -0.28400
H372        H  0.38092057  0.63228344  0.06772122     0.19200
H373        H  0.39116204  0.77750281  0.07599740     0.19200
H374        H  0.25407272  0.62985593  0.41206535     0.19300
H375        H  0.39115039  0.77699144  0.42139929     0.19200
C376        C  0.34076823  0.67655996  0.29149207     0.33100
C377        C  0.34058593  0.67594586  0.19251257     0.33100
C378        C  0.30175214  0.65348548  0.26572524    -0.03100
C379        C  0.36345813  0.72203627  0.27034623    -0.03900
C380        C  0.35710934  0.65399720  0.26617973    -0.03800
C381        C  0.30142831  0.65312805  0.21501900    -0.03100
C382        C  0.36340998  0.72179586  0.21965998    -0.03900
C383        C  0.35720713  0.65361984  0.21547364    -0.03800
C384        C  0.26440453  0.63431636  0.19926936    -0.29100
N385        N  0.24290004  0.62347735  0.23908188     0.17400
C386        C  0.26527605  0.63497217  0.27969361    -0.29200
H387        H  0.25582605  0.63120315  0.31662312     0.19300
C388        C  0.38518492  0.76522251  0.20771466    -0.28100
N389        N  0.39815227  0.79125717  0.24971169     0.16100
C390        C  0.38517664  0.76547634  0.28814354    -0.28100
C391        C  0.37577808  0.63528560  0.20024721    -0.28400
N392        N  0.38654124  0.62477661  0.24035606     0.16600
H393        H  0.38181639  0.63093023  0.16316896     0.19200
C394        C  0.37534538  0.63599031  0.28065598    -0.28400
H395        H  0.38094886  0.63232463  0.31772636     0.19200
H396        H  0.39114976  0.77749817  0.32602944     0.19200
H397        H  0.25409103  0.62990471  0.16205081     0.19300
H398        H  0.39117945  0.77702853  0.17143563     0.19200
C399        C  0.13170305  0.56465726  0.00878936     0.79500
Tb400      Tb  0.46134899  0.51333134  0.03971109     1.80700
O401        O  0.12292592  0.56803158  0.05141461    -0.48500
O402        O  0.08109076  0.99086236  0.09850097    -0.55900
C403        C  0.05397408  0.60279739  0.06173851     0.95400
O404        O  0.44997844  0.56748418  0.05266367    -0.55400
Tb405      Tb  0.05699597  0.51394011  0.04020364     1.78100
O406        O  0.39525471  0.96095685  0.02712073    -0.55900
O407        O  0.50021081  0.94397509  0.02272666    -0.74800
O408        O  0.07038418  0.58367204  0.05860283    -0.74100
O409        O  0.03557726  0.51491155  0.46314478    -0.59300
C410        C  0.46458195  0.92451749  0.01797727     0.95000
O411        O  0.48333439  0.51382195  0.11695720    -0.71300
C412        C  0.38640851  0.46179644  0.07040794     0.78400
C413        C  0.08060373  0.96272780  0.07062123     0.79400
O414        O  0.10344515  0.53767996  0.48079949    -0.56900
O415        O  0.06685955  0.95844328  0.02866076    -0.48500
O416        O  0.48222062  0.51178224  0.46252656    -0.74500
O417        O  0.03536834  0.51422906  0.11729381    -0.58500
C418        C  0.00925825  0.51387684  0.13848646     0.93200
C419        C  0.00901947  0.51354109  0.44148150     0.94400
C420        C  0.43836546  0.56540718  0.50999013     0.78700
O421        O  0.41466823  0.48666824  0.09922951    -0.47900
O422        O  0.43964419  0.03901888  0.48123005    -0.49000
O423        O  0.44810936  0.94353426  0.02210952    -0.61900
O424        O  0.01838982  0.58340509  0.05611851    -0.63000
C425        C  0.13171272  0.56470279  0.25878622     0.79500
Tb426      Tb  0.46137966  0.51338380  0.28970600     1.80700
O427        O  0.12293913  0.56809137  0.30140925    -0.48500
O428        O  0.08120205  0.99099016  0.34848021    -0.55900
C429        C  0.05398837  0.60283578  0.31179650     0.95400
O430        O  0.45001935  0.56754484  0.30266453    -0.55400
Tb431      Tb  0.05701031  0.51398130  0.29021848     1.78100
O432        O  0.39528503  0.96102481  0.27708636    -0.55900
O433        O  0.50022868  0.94399943  0.27279226    -0.74800
O434        O  0.07039264  0.58370464  0.30865380    -0.74100
O435        O  0.03560751  0.51496066  0.21314937    -0.59300
C436        C  0.46460162  0.92454850  0.26802257     0.95000
O437        O  0.48332521  0.51382029  0.36695932    -0.71300
C438        C  0.38642892  0.46185783  0.32037000     0.78400
C439        C  0.08064354  0.96279325  0.32062536     0.79400
O440        O  0.10345279  0.53770514  0.23080919    -0.56500
O441        O  0.06681547  0.95843558  0.27870120    -0.48500
O442        O  0.48224651  0.51182115  0.21252265    -0.74500
O443        O  0.03536443  0.51423877  0.36730157    -0.58500
C444        C  0.00924403  0.51386649  0.38849027     0.93200
C445        C  0.00904569  0.51357856  0.19148060     0.94400
C446        C  0.43842733  0.56548978  0.25998379     0.78700
O447        O  0.41468332  0.48672217  0.34920088    -0.47900
O448        O  0.43971202  0.03910837  0.23121865    -0.49000
O449        O  0.44813806  0.94357920  0.27211538    -0.61900
O450        O  0.01840779  0.58345377  0.30616111    -0.63000
C451        C  0.17748630  0.85090271  0.03822884     0.33100
C452        C  0.17779656  0.85150003  0.13720931     0.33100
C453        C  0.16146200  0.87377753  0.06367467    -0.03100
C454        C  0.15459276  0.80541552  0.05935544    -0.03900
C455        C  0.21649756  0.87364470  0.06389060    -0.03800
C456        C  0.16145630  0.87415139  0.11438078    -0.03100
C457        C  0.15471473  0.80564214  0.11004175    -0.03900
C458        C  0.21689249  0.87402134  0.11460076    -0.03800
C459        C  0.14330199  0.89292427  0.12981356    -0.29100
N460        N  0.13266474  0.90367329  0.08981686     0.17400
C461        C  0.14353548  0.89219689  0.04938627    -0.29200
H462        H  0.13790720  0.89595835  0.01237412     0.19300
C463        C  0.13315426  0.76220003  0.12195827    -0.28100
N464        N  0.12021866  0.73616604  0.07995124     0.16100
C465        C  0.13302542  0.76197526  0.04153735    -0.28100
C466        C  0.25385026  0.89236154  0.13022269    -0.28400
N467        N  0.27523953  0.90284740  0.09033341     0.16600
H468        H  0.26418463  0.89667491  0.16740990     0.19200
C469        C  0.25285722  0.89161690  0.04979448    -0.28400
H470        H  0.26221411  0.89520437  0.01282696     0.19200
H471        H  0.12715554  0.74997664  0.00364813     0.19200
H472        H  0.13743549  0.89739920  0.16694930     0.19300
H473        H  0.12739156  0.75038514  0.15823570     0.19200
C474        C  0.17748801  0.85091000  0.28822929     0.33100
C475        C  0.17781445  0.85154149  0.38721218     0.33100
C476        C  0.16146561  0.87379143  0.31366475    -0.03100
C477        C  0.15460117  0.80543334  0.30937584    -0.03900
C478        C  0.21650369  0.87366403  0.31388295    -0.03800
C479        C  0.16146817  0.87418245  0.36437262    -0.03100
C480        C  0.15473094  0.80567776  0.36006240    -0.03900
C481        C  0.21690791  0.87405856  0.36459455    -0.03800
C482        C  0.14332882  0.89297511  0.37979949    -0.29100
N483        N  0.13269342  0.90372022  0.33979662     0.17400
C484        C  0.14354970  0.89222129  0.29936951    -0.29200
H485        H  0.13792269  0.89598052  0.26235277     0.19300
C486        C  0.13317245  0.76224215  0.37199956    -0.28100
N487        N  0.12023228  0.73619574  0.33000188     0.16100
C488        C  0.13303225  0.76198927  0.29157619    -0.28100
C489        C  0.25387184  0.89241640  0.38020840    -0.28400
N490        N  0.27525442  0.90289406  0.34031169     0.16600
H491        H  0.26421397  0.89674804  0.41739152     0.19200
C492        C  0.25286213  0.89164228  0.29977854    -0.28400
H493        H  0.26221280  0.89522114  0.26280576     0.19200
H494        H  0.12715610  0.74997625  0.25368780     0.19200
H495        H  0.13747676  0.89747115  0.41692887     0.19300
H496        H  0.12741522  0.75044130  0.40827837     0.19200
C497        C  0.17746257  0.85085855  0.48464576    -0.10200
C498        C  0.17772566  0.85137013  0.44075738    -0.11700
C499        C  0.17770658  0.85132587  0.19075421    -0.10200
C500        C  0.17745287  0.85083840  0.23464451    -0.11700
C501        C  0.09727421  0.68983431  0.32640259    -0.10200
C502        C  0.07748328  0.64999577  0.32131244    -0.11700
C503        C  0.31424797  0.92171003  0.33969556    -0.10200
C504        C  0.34762819  0.93888637  0.33426541    -0.11700
C505        C  0.11283990  0.92280368  0.33903842    -0.10200
C506        C  0.09671304  0.94000427  0.33380123    -0.11700
C507        C  0.07746600  0.64996225  0.07123697    -0.10200
C508        C  0.09725778  0.68980243  0.07633237    -0.11700
C509        C  0.34761117  0.93882725  0.08431203    -0.10200
C510        C  0.31423100  0.92165462  0.08973074    -0.11700
C511        C  0.09666318  0.93993150  0.08381587    -0.10200
C512        C  0.11279538  0.92273791  0.08906148    -0.11700
C513        C  0.40660757  0.60592927  0.24133825    -0.10200
C514        C  0.42271527  0.58869997  0.24675335    -0.11700
C515        C  0.44114422  0.87742441  0.25842098    -0.10200
C516        C  0.42130463  0.83760253  0.25330601    -0.11700
C517        C  0.20385815  0.60440627  0.23957740    -0.10200
C518        C  0.17047830  0.58726588  0.24492594    -0.11700
C519        C  0.40654214  0.60584265  0.49133684    -0.10200
C520        C  0.42264481  0.58860812  0.49675844    -0.11700
C521        C  0.44113200  0.87739982  0.00835979    -0.10200
C522        C  0.42129316  0.83758033  0.00325033    -0.11700
C523        C  0.17046900  0.58721372  0.99493839    -0.10200
C524        C  0.20384962  0.60435792  0.98959779    -0.11700
C525        C  0.34064462  0.67611335  0.38896510    -0.10200
C526        C  0.34079597  0.67663020  0.34507669    -0.11700
C527        C  0.34081337  0.67664565  0.09507754    -0.10200
C528        C  0.34066659  0.67614209  0.13896747    -0.11700
C529        C  0.34077333  0.67655828  0.54149138     0.33100
C530        C  0.34057127  0.67592074  0.94250956     0.33100
C531        C  0.30175303  0.65348423  0.51573532    -0.03100
C532        C  0.36346327  0.72202735  0.52033166    -0.03900
C533        C  0.35710229  0.65398163  0.51617857    -0.03800
C534        C  0.30142037  0.65311525  0.96502810    -0.03100
C535        C  0.36340303  0.72177404  0.96964433    -0.03900
C536        C  0.35719002  0.65359192  0.96547036    -0.03800
C537        C  0.26439320  0.63428522  0.94928470    -0.29100
N538        N  0.24289355  0.62344422  0.98910101     0.17400
C539        C  0.26527601  0.63495618  0.52971000    -0.29200
H540        H  0.25582862  0.63118318  0.56664003     0.19300
C541        C  0.38516786  0.76519452  0.95768373    -0.28100
N542        N  0.39814333  0.79123796  0.49967289     0.16100
C543        C  0.38518156  0.76547026  0.53811534    -0.28100
C544        C  0.37573379  0.63522447  0.95024162    -0.28400
N545        N  0.38649202  0.62470981  0.99035070     0.16600
H546        H  0.38175472  0.63084707  0.91316137     0.19200
C547        C  0.37531816  0.63595080  0.53065368    -0.28400
H548        H  0.38092039  0.63228390  0.56772255     0.19200
H549        H  0.39116192  0.77750284  0.57599740     0.19200
H550        H  0.25407210  0.62985611  0.91206561     0.19300
H551        H  0.39114973  0.77699148  0.92139911     0.19200
C552        C  0.34076726  0.67655944  0.79149200     0.33100
C553        C  0.34058529  0.67594563  0.69251268     0.33100
C554        C  0.30175112  0.65348447  0.76572509    -0.03100
C555        C  0.36345687  0.72203586  0.77034639    -0.03900
C556        C  0.35710891  0.65399724  0.76617974    -0.03800
C557        C  0.30142749  0.65312724  0.71501886    -0.03100
C558        C  0.36340887  0.72179555  0.71966017    -0.03900
C559        C  0.35720688  0.65362006  0.71547370    -0.03800
C560        C  0.26440376  0.63431538  0.69926917    -0.29100
N561        N  0.24289900  0.62347592  0.73908132     0.17400
C562        C  0.26527486  0.63497068  0.77969326    -0.29200
H563        H  0.25582470  0.63120150  0.81662256     0.19300
C564        C  0.38518371  0.76522219  0.70771491    -0.28100
N565        N  0.39815086  0.79125683  0.74971198     0.16100
C566        C  0.38517517  0.76547590  0.78814365    -0.28100
C567        C  0.37577823  0.63528628  0.70024721    -0.28400
N568        N  0.38654147  0.62477741  0.74035606     0.16600
H569        H  0.38181663  0.63093110  0.66316929     0.19200
C570        C  0.37534537  0.63599078  0.78065612    -0.28400
H571        H  0.38094871  0.63232518  0.81772558     0.19200
H572        H  0.39114832  0.77749798  0.82603032     0.19200
H573        H  0.25409018  0.62990388  0.66204959     0.19300
H574        H  0.39117840  0.77702825  0.67143589     0.19200
C575        C  0.13170314  0.56465718  0.50878813     0.79500
Tb576      Tb  0.46134921  0.51333141  0.53971095     1.80700
O577        O  0.12292634  0.56803118  0.55141368    -0.48500
O578        O  0.08109111  0.99086227  0.59850111    -0.55900
C579        C  0.05397433  0.60279720  0.56173849     0.95400
O580        O  0.44997726  0.56748291  0.55266549    -0.55400
Tb581      Tb  0.05699635  0.51393998  0.54020345     1.78100
O582        O  0.39525516  0.96095763  0.52711937    -0.55900
O583        O  0.50021109  0.94397498  0.52272622    -0.74800
O584        O  0.07038437  0.58367180  0.55860233    -0.74100
O585        O  0.03557723  0.51491221  0.96314490    -0.59300
C586        C  0.46458225  0.92451758  0.51797654     0.95000
O587        O  0.48333464  0.51382191  0.61695690    -0.71300
C588        C  0.38640858  0.46179597  0.57040662     0.78400
C589        C  0.08060441  0.96272793  0.57062140     0.79400
O590        O  0.10344525  0.53767972  0.98080059    -0.56900
O591        O  0.06686053  0.95844358  0.52866076    -0.48500
O592        O  0.48222006  0.51178192  0.96252648    -0.74500
O593        O  0.03536859  0.51422903  0.61729357    -0.58500
C594        C  0.00925850  0.51387679  0.63848621     0.93200
C595        C  0.00901922  0.51354129  0.94148152     0.94400
C596        C  0.43836481  0.56540629  0.00998872     0.78700
O597        O  0.41466811  0.48666682  0.59922873    -0.47900
O598        O  0.43964169  0.03901599  0.98122979    -0.49000
O599        O  0.44810978  0.94353453  0.52210866    -0.61900
O600        O  0.01839003  0.58340496  0.55611908    -0.63000
C601        C  0.13171185  0.56470213  0.75878560     0.79500
Tb602      Tb  0.46137938  0.51338389  0.78970554     1.80700
O603        O  0.12293842  0.56809231  0.80140821    -0.48500
O604        O  0.08120252  0.99099047  0.84847995    -0.55900
C605        C  0.05398792  0.60283555  0.81179615     0.95400
O606        O  0.45001868  0.56754450  0.80266418    -0.55400
Tb607      Tb  0.05700971  0.51398084  0.79021863     1.78100
O608        O  0.39528449  0.96102688  0.77708630    -0.55900
O609        O  0.50022748  0.94399904  0.77279280    -0.74800
O610        O  0.07039191  0.58370409  0.80865381    -0.74100
O611        O  0.03560752  0.51496040  0.71314927    -0.59300
C612        C  0.46460048  0.92454824  0.76802238     0.95000
O613        O  0.48332544  0.51382118  0.86695908    -0.71300
C614        C  0.38642897  0.46185852  0.82037054     0.78400
C615        C  0.08064326  0.96279290  0.82062533     0.79400
O616        O  0.10345189  0.53770308  0.73080932    -0.56500
O617        O  0.06681407  0.95843436  0.77870170    -0.48500
O618        O  0.48224652  0.51182085  0.71252239    -0.74500
O619        O  0.03536382  0.51423808  0.86730169    -0.58500
C620        C  0.00924378  0.51386663  0.88849026     0.93200
C621        C  0.00904576  0.51357837  0.69148040     0.94400
C622        C  0.43842732  0.56549021  0.75998332     0.78700
O623        O  0.41468371  0.48672120  0.84920145    -0.47900
O624        O  0.43971225  0.03910909  0.73121797    -0.49000
O625        O  0.44813703  0.94357910  0.77211444    -0.61900
O626        O  0.01840742  0.58345389  0.80616033    -0.63000
C627        C  0.17748649  0.85090263  0.53822861     0.33100
C628        C  0.17779712  0.85149979  0.63720908     0.33100
C629        C  0.16146232  0.87377740  0.56367485    -0.03100
C630        C  0.15459309  0.80541541  0.55935517    -0.03900
C631        C  0.21649780  0.87364468  0.56389012    -0.03800
C632        C  0.16145673  0.87415117  0.61438093    -0.03100
C633        C  0.15471528  0.80564196  0.61004144    -0.03900
C634        C  0.21689293  0.87402124  0.61460026    -0.03800
C635        C  0.14330281  0.89292424  0.62981320    -0.29100
N636        N  0.13266554  0.90367363  0.58981772     0.17400
C637        C  0.14353599  0.89219721  0.54938578    -0.29200
H638        H  0.13790851  0.89595839  0.51237913     0.19300
C639        C  0.13315494  0.76219981  0.62195798    -0.28100
N640        N  0.12021921  0.73616589  0.57995086     0.16100
C641        C  0.13302571  0.76197510  0.54153687    -0.28100
C642        C  0.25385072  0.89236123  0.63022181    -0.28400
N643        N  0.27523981  0.90284723  0.59033241     0.16600
H644        H  0.26418522  0.89667428  0.66740901     0.19200
C645        C  0.25285739  0.89161690  0.54979347    -0.28400
H646        H  0.26221385  0.89520431  0.51282686     0.19200
H647        H  0.12715580  0.74997678  0.50364845     0.19200
H648        H  0.13743581  0.89739973  0.66695357     0.19300
H649        H  0.12739252  0.75038509  0.65823487     0.19200
C650        C  0.17748851  0.85090993  0.78822923     0.33100
C651        C  0.17781438  0.85154120  0.88721214     0.33100
C652        C  0.16146597  0.87379136  0.81366440    -0.03100
C653        C  0.15460156  0.80543321  0.80937565    -0.03900
C654        C  0.21650406  0.87366395  0.81388332    -0.03800
C655        C  0.16146827  0.87418229  0.86437239    -0.03100
C656        C  0.15473108  0.80567751  0.86006223    -0.03900
C657        C  0.21690793  0.87405828  0.86459493    -0.03800
C658        C  0.14332902  0.89297503  0.87979855    -0.29100
N659        N  0.13269384  0.90372039  0.83979596     0.17400
C660        C  0.14355031  0.89222137  0.79936930    -0.29200
H661        H  0.13792319  0.89598089  0.76235036     0.19300
C662        C  0.13317267  0.76224185  0.87199927    -0.28100
N663        N  0.12023280  0.73619554  0.83000150     0.16100
C664        C  0.13303295  0.76198914  0.79157587    -0.28100
C665        C  0.25387170  0.89241618  0.88020923    -0.28400
N666        N  0.27525464  0.90289417  0.84031297     0.16600
H667        H  0.26421368  0.89674780  0.91739313     0.19200
C668        C  0.25286271  0.89164257  0.79977937    -0.28400
H669        H  0.26221364  0.89522176  0.76280734     0.19200
H670        H  0.12715711  0.74997622  0.75368759     0.19200
H671        H  0.13747634  0.89747127  0.91693043     0.19300
H672        H  0.12741520  0.75044096  0.90827796     0.19200
C673        C  0.17746244  0.85085849  0.98464587    -0.10200
C674        C  0.17772543  0.85136983  0.94075743    -0.11700
C675        C  0.17770732  0.85132562  0.69075406    -0.10200
C676        C  0.17745362  0.85083834  0.73464439    -0.11700
C677        C  0.09727444  0.68983410  0.82640211    -0.10200
C678        C  0.07748316  0.64999555  0.82131202    -0.11700
C679        C  0.31424824  0.92171043  0.83969725    -0.10200
C680        C  0.34762845  0.93888704  0.83426684    -0.11700
C681        C  0.11284014  0.92280368  0.83903761    -0.10200
C682        C  0.09671312  0.94000415  0.83380074    -0.11700
C683        C  0.07746644  0.64996209  0.57123677    -0.10200
C684        C  0.09725831  0.68980228  0.57633197    -0.11700
C685        C  0.34761130  0.93882675  0.58431049    -0.10200
C686        C  0.31423119  0.92165423  0.58972938    -0.11700
C687        C  0.09666398  0.93993180  0.58381623    -0.10200
C688        C  0.11279627  0.92273832  0.58906205    -0.11700
C689        C  0.40660792  0.60593021  0.74133820    -0.10200
C690        C  0.42271553  0.58870077  0.74675311    -0.11700
C691        C  0.44114300  0.87742410  0.75842109    -0.10200
C692        C  0.42130327  0.83760220  0.75330627    -0.11700
C693        C  0.20385711  0.60440494  0.73957661    -0.10200
C694        C  0.17047734  0.58726487  0.74492513    -0.11700
C695        C  0.40654172  0.60584202  0.99133492    -0.10200
C696        C  0.42264414  0.58860713  0.99675654    -0.11700
C697        C  0.44113214  0.87739987  0.50835927    -0.10200
C698        C  0.42129334  0.83758035  0.50325031    -0.11700
C699        C  0.17046900  0.58721356  0.49493679    -0.10200
C700        C  0.20384962  0.60435766  0.48959647    -0.11700
C701        C  0.34064387  0.67611307  0.88896484    -0.10200
C702        C  0.34079498  0.67662974  0.84507649    -0.11700
C703        C  0.34081289  0.67664567  0.59507778    -0.10200
C704        C  0.34066613  0.67614204  0.63896766    -0.11700
C705        C  0.84077354  0.17655826  0.04149106     0.33100
C706        C  0.84057158  0.17592081  0.44250989     0.33100
C707        C  0.80175302  0.15348380  0.01573541    -0.03100
C708        C  0.86346301  0.22202733  0.02033125    -0.03900
C709        C  0.85710273  0.15398199  0.01617782    -0.03800
C710        C  0.80142058  0.15311566  0.46502804    -0.03100
C711        C  0.86340347  0.22177408  0.46964475    -0.03900
C712        C  0.85718978  0.15359154  0.46547118    -0.03800
C713        C  0.76439340  0.13428532  0.44928407    -0.29100
N714        N  0.74289356  0.12344417  0.48910025     0.17400
C715        C  0.76527615  0.13495602  0.02971044    -0.29200
H716        H  0.75582887  0.13118317  0.06664098     0.19300
C717        C  0.88516845  0.26519455  0.45768407    -0.28100
N718        N  0.89814288  0.29123796  0.99967260     0.16100
C719        C  0.88518138  0.26547022  0.03811495    -0.28100
C720        C  0.87573384  0.13522431  0.45024280    -0.28400
N721        N  0.88649206  0.12470998  0.49035227     0.16600
H722        H  0.88175500  0.13084715  0.41316338     0.19200
C723        C  0.87531852  0.13595093  0.03065238    -0.28400
H724        H  0.88092074  0.13228362  0.06772123     0.19200
H725        H  0.89116207  0.27750282  0.07599715     0.19200
H726        H  0.75407266  0.12985606  0.41206562     0.19300
H727        H  0.89115037  0.27699139  0.42139962     0.19200
C728        C  0.84076823  0.17655997  0.29149207     0.33100
C729        C  0.84058595  0.17594588  0.19251258     0.33100
C730        C  0.80175211  0.15348550  0.26572525    -0.03100
C731        C  0.86345816  0.22203628  0.27034623    -0.03900
C732        C  0.85710936  0.15399722  0.26617974    -0.03800
C733        C  0.80142830  0.15312810  0.21501902    -0.03100
C734        C  0.86341002  0.22179588  0.21965999    -0.03900
C735        C  0.85720716  0.15361987  0.21547364    -0.03800
C736        C  0.76440450  0.13431645  0.19926929    -0.29100
N737        N  0.74290004  0.12347738  0.23908186     0.17400
C738        C  0.76527595  0.13497209  0.27969369    -0.29200
H739        H  0.75582602  0.13120300  0.31662262     0.19300
C740        C  0.88518497  0.26522252  0.20771466    -0.28100
N741        N  0.89815234  0.29125717  0.24971168     0.16100
C742        C  0.88517672  0.26547637  0.28814358    -0.28100
C743        C  0.87577814  0.13528564  0.20024721    -0.28400
N744        N  0.88654122  0.12477656  0.24035606     0.16600
H745        H  0.88181649  0.13093032  0.16316897     0.19200
C746        C  0.87534541  0.13599032  0.28065594    -0.28400
H747        H  0.88094890  0.13232460  0.31772651     0.19200
H748        H  0.89114981  0.27749815  0.32602919     0.19200
H749        H  0.75409112  0.12990488  0.16205117     0.19300
H750        H  0.89117945  0.27702857  0.17143563     0.19200
C751        C  0.63170305  0.06465726  0.00878938     0.79500
Tb752      Tb  0.96134893  0.01333119  0.03971110     1.80700
O753        O  0.62292590  0.06803142  0.05141465    -0.48500
O754        O  0.58109068  0.49086230  0.09850101    -0.55900
C755        C  0.55397401  0.10279737  0.06173851     0.95400
O756        O  0.94997850  0.06748419  0.05266366    -0.55400
Tb757      Tb  0.55699593  0.01394018  0.04020364     1.78100
O758        O  0.89525479  0.46095691  0.02712087    -0.55900
O759        O  0.00021076  0.44397496  0.02272666    -0.74800
O760        O  0.57038417  0.08367209  0.05860282    -0.74100
O761        O  0.53557724  0.01491136  0.46314473    -0.59300
C762        C  0.96458191  0.42451749  0.01797728     0.95000
O763        O  0.98333427  0.01382174  0.11695722    -0.71300
C764        C  0.88640844  0.96179637  0.07040791     0.78400
C765        C  0.58060370  0.46272777  0.07062127     0.79400
O766        O  0.60344513  0.03768012  0.48079942    -0.56900
O767        O  0.56685964  0.45844331  0.02866073    -0.48500
O768        O  0.98222068  0.01178236  0.46252656    -0.74500
O769        O  0.53536839  0.01422918  0.11729382    -0.58500
C770        C  0.50925827  0.01387685  0.13848649     0.93200
C771        C  0.50901951  0.01354110  0.44148150     0.94400
C772        C  0.93836553  0.06540721  0.50999013     0.78700
O773        O  0.91466813  0.98666819  0.09922950    -0.47900
O774        O  0.93964401  0.53901875  0.48123008    -0.49000
O775        O  0.94810941  0.44353437  0.02210952    -0.61900
O776        O  0.51838973  0.08340500  0.05611854    -0.63000
C777        C  0.63171278  0.06470288  0.25878624     0.79500
Tb778      Tb  0.96137965  0.01338370  0.28970602     1.80700
O779        O  0.62293916  0.06809152  0.30140922    -0.48500
O780        O  0.58120212  0.49099016  0.34848014    -0.55900
C781        C  0.55398830  0.10283574  0.31179650     0.95400
O782        O  0.95001942  0.06754482  0.30266452    -0.55400
Tb783      Tb  0.55701037  0.01398135  0.29021847     1.78100
O784        O  0.89528500  0.46102498  0.27708634    -0.55900
O785        O  0.00022872  0.44399938  0.27279218    -0.74800
O786        O  0.57039262  0.08370466  0.30865381    -0.74100
O787        O  0.53560765  0.01496078  0.21314935    -0.59300
C788        C  0.96460168  0.42454851  0.26802246     0.95000
O789        O  0.98332525  0.01382036  0.36695933    -0.71300
C790        C  0.88642891  0.96185778  0.32036999     0.78400
C791        C  0.58064350  0.46279314  0.32062536     0.79400
O792        O  0.60345289  0.03770519  0.23080919    -0.56500
O793        O  0.56681537  0.45843541  0.27870123    -0.48500
O794        O  0.98224646  0.01182095  0.21252265    -0.74500
O795        O  0.53536440  0.01423885  0.36730150    -0.58500
C796        C  0.50924405  0.01386657  0.38849027     0.93200
C797        C  0.50904574  0.01357857  0.19148061     0.94400
C798        C  0.93842735  0.06548974  0.25998381     0.78700
O799        O  0.91468327  0.98672210  0.34920092    -0.47900
O800        O  0.93971190  0.53910835  0.23121868    -0.49000
O801        O  0.94813816  0.44357928  0.27211532    -0.61900
O802        O  0.51840772  0.08345368  0.30616108    -0.63000
C803        C  0.67748633  0.35090276  0.03822884     0.33100
C804        C  0.67779658  0.35150010  0.13720930     0.33100
C805        C  0.66146199  0.37377754  0.06367464    -0.03100
C806        C  0.65459284  0.30541556  0.05935543    -0.03900
C807        C  0.71649760  0.37364484  0.06389061    -0.03800
C808        C  0.66145631  0.37415143  0.11438076    -0.03100
C809        C  0.65471481  0.30564219  0.11004174    -0.03900
C810        C  0.71689251  0.37402148  0.11460076    -0.03800
C811        C  0.64330208  0.39292436  0.12981351    -0.29100
N812        N  0.63266482  0.40367343  0.08981686     0.17400
C813        C  0.64353555  0.39219696  0.04938631    -0.29200
H814        H  0.63790721  0.39595847  0.01237381     0.19300
C815        C  0.63315432  0.26220007  0.12195827    -0.28100
N816        N  0.62021875  0.23616606  0.07995125     0.16100
C817        C  0.63302550  0.26197527  0.04153737    -0.28100
C818        C  0.75385028  0.39236153  0.13022280    -0.28400
N819        N  0.77523952  0.40284724  0.09033346     0.16600
H820        H  0.76418447  0.39667477  0.16740951     0.19200
C821        C  0.75285727  0.39161692  0.04979451    -0.28400
H822        H  0.76221415  0.39520437  0.01282706     0.19200
H823        H  0.62715559  0.24997662  0.00364808     0.19200
H824        H  0.63743553  0.39739930  0.16694960     0.19300
H825        H  0.62739157  0.25038520  0.15823574     0.19200
C826        C  0.67748800  0.35090999  0.28822932     0.33100
C827        C  0.67781444  0.35154152  0.38721221     0.33100
C828        C  0.66146564  0.37379144  0.31366477    -0.03100
C829        C  0.65460115  0.30543329  0.30937586    -0.03900
C830        C  0.71650368  0.37366408  0.31388296    -0.03800
C831        C  0.66146821  0.37418250  0.36437264    -0.03100
C832        C  0.65473098  0.30567774  0.36006245    -0.03900
C833        C  0.71690790  0.37405859  0.36459456    -0.03800
C834        C  0.64332880  0.39297514  0.37979956    -0.29100
N835        N  0.63269343  0.40372020  0.33979657     0.17400
C836        C  0.64354968  0.39222122  0.29936953    -0.29200
H837        H  0.63792257  0.39598032  0.26235260     0.19300
C838        C  0.63317245  0.26224208  0.37199973    -0.28100
N839        N  0.62023211  0.23619568  0.33000189     0.16100
C840        C  0.63303212  0.26198924  0.29157647    -0.28100
C841        C  0.75387180  0.39241631  0.38020839    -0.28400
N842        N  0.77525441  0.40289413  0.34031167     0.16600
H843        H  0.76421390  0.39674778  0.41739150     0.19200
C844        C  0.75286212  0.39164241  0.29977855    -0.28400
H845        H  0.76221279  0.39522132  0.26280572     0.19200
H846        H  0.62715571  0.24997579  0.25368679     0.19200
H847        H  0.63747669  0.39747103  0.41692846     0.19300
H848        H  0.62741534  0.25044140  0.40827800     0.19200
C849        C  0.67746258  0.35085859  0.48464577    -0.10200
C850        C  0.67772564  0.35137021  0.44075739    -0.11700
C851        C  0.67770655  0.35132595  0.19075421    -0.10200
C852        C  0.67745289  0.35083845  0.23464452    -0.11700
C853        C  0.59727402  0.18983424  0.32640264    -0.10200
C854        C  0.57748315  0.14999572  0.32131246    -0.11700
C855        C  0.81424797  0.42171007  0.33969556    -0.10200
C856        C  0.84762819  0.43888642  0.33426548    -0.11700
C857        C  0.61283975  0.42280347  0.33903839    -0.10200
C858        C  0.59671291  0.44000405  0.33380125    -0.11700
C859        C  0.57746596  0.14996225  0.07123696    -0.10200
C860        C  0.59725783  0.18980242  0.07633238    -0.11700
C861        C  0.84761121  0.43882726  0.08431216    -0.10200
C862        C  0.81423102  0.42165447  0.08973090    -0.11700
C863        C  0.59666316  0.43993151  0.08381594    -0.10200
C864        C  0.61279544  0.42273800  0.08906149    -0.11700
C865        C  0.90660761  0.10592928  0.24133825    -0.10200
C866        C  0.92271528  0.08869994  0.24675338    -0.11700
C867        C  0.94114428  0.37742441  0.25842094    -0.10200
C868        C  0.92130469  0.33760253  0.25330601    -0.11700
C869        C  0.70385815  0.10440630  0.23957739    -0.10200
C870        C  0.67047836  0.08726595  0.24492600    -0.11700
C871        C  0.90654216  0.10584269  0.49133684    -0.10200
C872        C  0.92264488  0.08860819  0.49675847    -0.11700
C873        C  0.94113186  0.37739982  0.00835981    -0.10200
C874        C  0.92129301  0.33758036  0.00325033    -0.11700
C875        C  0.67046900  0.08721377  0.99493840    -0.10200
C876        C  0.70384959  0.10435781  0.98959775    -0.11700
C877        C  0.84064464  0.17611338  0.38896510    -0.10200
C878        C  0.84079602  0.17663024  0.34507670    -0.11700
C879        C  0.84081333  0.17664573  0.09507755    -0.10200
C880        C  0.84066660  0.17614214  0.13896747    -0.11700
C881        C  0.84077331  0.17655831  0.54149138     0.33100
C882        C  0.84057120  0.17592073  0.94250958     0.33100
C883        C  0.80175298  0.15348415  0.51573531    -0.03100
C884        C  0.86346319  0.22202739  0.52033164    -0.03900
C885        C  0.85710233  0.15398172  0.51617858    -0.03800
C886        C  0.80142034  0.15311532  0.96502813    -0.03100
C887        C  0.86340297  0.22177405  0.96964432    -0.03900
C888        C  0.85718986  0.15359178  0.96547038    -0.03800
C889        C  0.76439317  0.13428525  0.94928469    -0.29100
N890        N  0.74289351  0.12344416  0.98910097     0.17400
C891        C  0.76527598  0.13495617  0.52971001    -0.29200
H892        H  0.75582858  0.13118322  0.56664012     0.19300
C893        C  0.88516771  0.26519455  0.95768373    -0.28100
N894        N  0.89814345  0.29123802  0.49967289     0.16100
C895        C  0.88518162  0.26547032  0.53811532    -0.28100
C896        C  0.87573357  0.13522428  0.95024167    -0.28400
N897        N  0.88649202  0.12470985  0.99035068     0.16600
H898        H  0.88175443  0.13084672  0.91316103     0.19200
C899        C  0.87531824  0.13595094  0.53065368    -0.28400
H900        H  0.88092047  0.13228401  0.56772254     0.19200
H901        H  0.89116204  0.27750292  0.57599738     0.19200
H902        H  0.75407210  0.12985610  0.91206557     0.19300
H903        H  0.89114953  0.27699152  0.92139910     0.19200
C904        C  0.84076723  0.17655946  0.79149200     0.33100
C905        C  0.84058520  0.17594563  0.69251268     0.33100
C906        C  0.80175107  0.15348450  0.76572508    -0.03100
C907        C  0.86345678  0.22203589  0.77034638    -0.03900
C908        C  0.85710888  0.15399725  0.76617974    -0.03800
C909        C  0.80142740  0.15312721  0.71501884    -0.03100
C910        C  0.86340881  0.22179557  0.71966018    -0.03900
C911        C  0.85720680  0.15362004  0.71547370    -0.03800
C912        C  0.76440360  0.13431518  0.69926912    -0.29100
N913        N  0.74289892  0.12347575  0.73908137     0.17400
C914        C  0.76527482  0.13497064  0.77969324    -0.29200
H915        H  0.75582464  0.13120147  0.81662278     0.19300
C916        C  0.88518363  0.26522223  0.70771492    -0.28100
N917        N  0.89815073  0.29125685  0.74971194     0.16100
C918        C  0.88517508  0.26547600  0.78814381    -0.28100
C919        C  0.87577818  0.13528630  0.70024727    -0.28400
N920        N  0.88654145  0.12477740  0.74035602     0.16600
H921        H  0.88181667  0.13093118  0.66316893     0.19200
C922        C  0.87534529  0.13599069  0.78065610    -0.28400
H923        H  0.88094857  0.13232500  0.81772556     0.19200
H924        H  0.89114814  0.27749778  0.82602947     0.19200
H925        H  0.75409002  0.12990366  0.66204986     0.19300
H926        H  0.89117835  0.27702830  0.67143587     0.19200
C927        C  0.63170315  0.06465720  0.50878812     0.79500
Tb928      Tb  0.96134927  0.01333141  0.53971096     1.80700
O929        O  0.62292637  0.06803103  0.55141374    -0.48500
O930        O  0.58109121  0.49086236  0.59850104    -0.55900
C931        C  0.55397436  0.10279722  0.56173849     0.95400
O932        O  0.94997721  0.06748280  0.55266553    -0.55400
Tb933      Tb  0.55699639  0.01394003  0.54020345     1.78100
O934        O  0.89525506  0.46095753  0.52711938    -0.55900
O935        O  0.00021103  0.44397500  0.52272621    -0.74800
O936        O  0.57038443  0.08367185  0.55860232    -0.74100
O937        O  0.53557720  0.01491225  0.96314489    -0.59300
C938        C  0.96458220  0.42451764  0.51797654     0.95000
O939        O  0.98333457  0.01382165  0.61695690    -0.71300
C940        C  0.88640856  0.96179597  0.57040658     0.78400
C941        C  0.58060448  0.46272797  0.57062138     0.79400
O942        O  0.60344526  0.03767978  0.98080058    -0.56900
O943        O  0.56686047  0.45844347  0.52866080    -0.48500
O944        O  0.98222003  0.01178191  0.96252648    -0.74500
O945        O  0.53536869  0.01422909  0.61729357    -0.58500
C946        C  0.50925850  0.01387664  0.63848620     0.93200
C947        C  0.50901913  0.01354126  0.94148152     0.94400
C948        C  0.93836483  0.06540631  0.00998874     0.78700
O949        O  0.91466806  0.98666680  0.59922874    -0.47900
O950        O  0.93964161  0.53901593  0.98122977    -0.49000
O951        O  0.94810976  0.44353460  0.52210867    -0.61900
O952        O  0.51839007  0.08340500  0.55611908    -0.63000
C953        C  0.63171175  0.06470202  0.75878562     0.79500
Tb954      Tb  0.96137941  0.01338389  0.78970555     1.80700
O955        O  0.62293824  0.06809217  0.80140819    -0.48500
O956        O  0.58120245  0.49099050  0.84847999    -0.55900
C957        C  0.55398793  0.10283551  0.81179614     0.95400
O958        O  0.95001882  0.06754459  0.80266414    -0.55400
Tb959      Tb  0.55700957  0.01398069  0.79021865     1.78100
O960        O  0.89528451  0.46102690  0.77708630    -0.55900
O961        O  0.00022763  0.44399916  0.77279250    -0.74800
O962        O  0.57039195  0.08370408  0.80865378    -0.74100
O963        O  0.53560758  0.01496039  0.71314924    -0.59300
C964        C  0.96460060  0.42454831  0.76802230     0.95000
O965        O  0.98332525  0.01382098  0.86695911    -0.71300
C966        C  0.88642893  0.96185844  0.82037054     0.78400
C967        C  0.58064325  0.46279297  0.82062537     0.79400
O968        O  0.60345183  0.03770286  0.73080935    -0.56500
O969        O  0.56681417  0.45843448  0.77870168    -0.48500
O970        O  0.98224659  0.01182086  0.71252242    -0.74500
O971        O  0.53536376  0.01423818  0.86730169    -0.58500
C972        C  0.50924370  0.01386659  0.88849027     0.93200
C973        C  0.50904579  0.01357828  0.69148039     0.94400
C974        C  0.93842735  0.06549017  0.75998329     0.78700
O975        O  0.91468367  0.98672115  0.84920142    -0.47900
O976        O  0.93971228  0.53910920  0.73121793    -0.49000
O977        O  0.94813712  0.44357913  0.77211448    -0.61900
O978        O  0.51840744  0.08345382  0.80616037    -0.63000
C979        C  0.67748648  0.35090261  0.53822863     0.33100
C980        C  0.67779714  0.35149978  0.63720910     0.33100
C981        C  0.66146231  0.37377738  0.56367486    -0.03100
C982        C  0.65459310  0.30541534  0.55935519    -0.03900
C983        C  0.71649782  0.37364470  0.56389015    -0.03800
C984        C  0.66145674  0.37415118  0.61438095    -0.03100
C985        C  0.65471529  0.30564190  0.61004147    -0.03900
C986        C  0.71689296  0.37402126  0.61460027    -0.03800
C987        C  0.64330289  0.39292435  0.62981322    -0.29100
N988        N  0.63266562  0.40367373  0.58981773     0.17400
C989        C  0.64353605  0.39219728  0.54938585    -0.29200
H990        H  0.63790850  0.39595847  0.51237883     0.19300
C991        C  0.63315496  0.26219974  0.62195793    -0.28100
N992        N  0.62021919  0.23616579  0.57995088     0.16100
C993        C  0.63302573  0.26197502  0.54153686    -0.28100
C994        C  0.75385076  0.39236123  0.63022180    -0.28400
N995        N  0.77523982  0.40284712  0.59033241     0.16600
H996        H  0.76418528  0.39667435  0.66740900     0.19200
C997        C  0.75285743  0.39161691  0.54979343    -0.28400
H998        H  0.76221384  0.39520438  0.51282715     0.19200
H999        H  0.62715578  0.24997669  0.50364856     0.19200
H1000       H  0.63743590  0.39739982  0.66695357     0.19300
H1001       H  0.62739242  0.25038483  0.65823520     0.19200
C1002       C  0.67748849  0.35090990  0.78822927     0.33100
C1003       C  0.67781437  0.35154123  0.88721216     0.33100
C1004       C  0.66146591  0.37379131  0.81366441    -0.03100
C1005       C  0.65460154  0.30543318  0.80937569    -0.03900
C1006       C  0.71650406  0.37366399  0.81388335    -0.03800
C1007       C  0.66146828  0.37418234  0.86437240    -0.03100
C1008       C  0.65473105  0.30567750  0.86006226    -0.03900
C1009       C  0.71690794  0.37405838  0.86459496    -0.03800
C1010       C  0.64332907  0.39297511  0.87979858    -0.29100
N1011       N  0.63269384  0.40372043  0.83979602     0.17400
C1012       C  0.64355026  0.39222137  0.79936928    -0.29200
H1013       H  0.63792323  0.39598092  0.76235071     0.19300
C1014       C  0.63317269  0.26224183  0.87199926    -0.28100
N1015       N  0.62023278  0.23619549  0.83000150     0.16100
C1016       C  0.63303289  0.26198914  0.79157594    -0.28100
C1017       C  0.75387172  0.39241625  0.88020924    -0.28400
N1018       N  0.77525466  0.40289419  0.84031296     0.16600
H1019       H  0.76421370  0.39674787  0.91739306     0.19200
C1020       C  0.75286267  0.39164243  0.79977936    -0.28400
H1021       H  0.76221354  0.39522142  0.76280736     0.19200
H1022       H  0.62715693  0.24997614  0.75368732     0.19200
H1023       H  0.63747637  0.39747136  0.91693051     0.19300
H1024       H  0.62741525  0.25044087  0.90827805     0.19200
C1025       C  0.67746249  0.35085856  0.98464588    -0.10200
C1026       C  0.67772541  0.35136990  0.94075745    -0.11700
C1027       C  0.67770735  0.35132561  0.69075409    -0.10200
C1028       C  0.67745362  0.35083823  0.73464443    -0.11700
C1029       C  0.59727434  0.18983405  0.82640211    -0.10200
C1030       C  0.57748309  0.14999549  0.82131201    -0.11700
C1031       C  0.81424827  0.42171054  0.83969723    -0.10200
C1032       C  0.84762850  0.43888714  0.83426684    -0.11700
C1033       C  0.61284019  0.42280380  0.83903764    -0.10200
C1034       C  0.59671317  0.44000429  0.83380078    -0.11700
C1035       C  0.57746640  0.14996204  0.57123679    -0.10200
C1036       C  0.59725821  0.18980222  0.57633198    -0.11700
C1037       C  0.84761135  0.43882682  0.58431059    -0.10200
C1038       C  0.81423124  0.42165425  0.58972939    -0.11700
C1039       C  0.59666406  0.43993188  0.58381626    -0.10200
C1040       C  0.61279630  0.42273837  0.58906207    -0.11700
C1041       C  0.90660794  0.10593021  0.74133817    -0.10200
C1042       C  0.92271549  0.08870069  0.74675307    -0.11700
C1043       C  0.94114310  0.37742413  0.75842111    -0.10200
C1044       C  0.92130332  0.33760224  0.75330628    -0.11700
C1045       C  0.70385706  0.10440496  0.73957667    -0.10200
C1046       C  0.67047730  0.08726492  0.74492520    -0.11700
C1047       C  0.90654164  0.10584194  0.99133489    -0.10200
C1048       C  0.92264408  0.08860708  0.99675656    -0.11700
C1049       C  0.94113208  0.37739994  0.50835927    -0.10200
C1050       C  0.92129339  0.33758042  0.50325029    -0.11700
C1051       C  0.67046899  0.08721365  0.49493676    -0.10200
C1052       C  0.70384961  0.10435773  0.48959649    -0.11700
C1053       C  0.84064386  0.17611303  0.88896484    -0.10200
C1054       C  0.84079495  0.17662965  0.84507648    -0.11700
C1055       C  0.84081291  0.17664575  0.59507779    -0.10200
C1056       C  0.84066606  0.17614210  0.63896766    -0.11700
C1057       C  0.84077354  0.67655821  0.04149104     0.33100
C1058       C  0.84057165  0.67592082  0.44250990     0.33100
C1059       C  0.80175304  0.65348376  0.01573539    -0.03100
C1060       C  0.86346298  0.72202729  0.02033127    -0.03900
C1061       C  0.85710274  0.65398196  0.01617778    -0.03800
C1062       C  0.80142065  0.65311573  0.46502805    -0.03100
C1063       C  0.86340351  0.72177407  0.46964475    -0.03900
C1064       C  0.85718980  0.65359152  0.46547118    -0.03800
C1065       C  0.76439348  0.63428528  0.44928410    -0.29100
N1066       N  0.74289358  0.62344414  0.48910020     0.17400
C1067       C  0.76527621  0.63495609  0.02971041    -0.29200
H1068       H  0.75582890  0.63118324  0.06664122     0.19300
C1069       C  0.88516836  0.76519449  0.45768412    -0.28100
N1070       N  0.89814298  0.79123794  0.99967262     0.16100
C1071       C  0.88518132  0.76547015  0.03811491    -0.28100
C1072       C  0.87573381  0.63522424  0.45024286    -0.28400
N1073       N  0.88649197  0.62470987  0.49035226     0.16600
H1074       H  0.88175510  0.63084716  0.41316309     0.19200
C1075       C  0.87531842  0.63595078  0.03065236    -0.28400
H1076       H  0.88092058  0.63228344  0.06772121     0.19200
H1077       H  0.89116203  0.77750281  0.07599740     0.19200
H1078       H  0.75407270  0.62985593  0.41206535     0.19300
H1079       H  0.89115034  0.77699144  0.42139929     0.19200
C1080       C  0.84076822  0.67655996  0.29149207     0.33100
C1081       C  0.84058592  0.67594586  0.19251257     0.33100
C1082       C  0.80175212  0.65348548  0.26572525    -0.03100
C1083       C  0.86345812  0.72203627  0.27034623    -0.03900
C1084       C  0.85710932  0.65399720  0.26617973    -0.03800
C1085       C  0.80142829  0.65312805  0.21501900    -0.03100
C1086       C  0.86340996  0.72179586  0.21965998    -0.03900
C1087       C  0.85720711  0.65361984  0.21547363    -0.03800
C1088       C  0.76440452  0.63431636  0.19926936    -0.29100
N1089       N  0.74290003  0.62347735  0.23908188     0.17400
C1090       C  0.76527604  0.63497217  0.27969361    -0.29200
H1091       H  0.75582604  0.63120315  0.31662312     0.19300
C1092       C  0.88518490  0.76522251  0.20771466    -0.28100
N1093       N  0.89815226  0.79125718  0.24971169     0.16100
C1094       C  0.88517662  0.76547634  0.28814354    -0.28100
C1095       C  0.87577806  0.63528560  0.20024721    -0.28400
N1096       N  0.88654123  0.62477661  0.24035606     0.16600
H1097       H  0.88181638  0.63093023  0.16316896     0.19200
C1098       C  0.87534537  0.63599031  0.28065598    -0.28400
H1099       H  0.88094884  0.63232463  0.31772636     0.19200
H1100       H  0.89114974  0.77749817  0.32602944     0.19200
H1101       H  0.75409101  0.62990471  0.16205081     0.19300
H1102       H  0.89117943  0.77702853  0.17143563     0.19200
C1103       C  0.63170302  0.56465725  0.00878936     0.79500
Tb1104     Tb  0.96134897  0.51333133  0.03971109     1.80700
O1105       O  0.62292590  0.56803158  0.05141461    -0.48500
O1106       O  0.58109075  0.99086236  0.09850096    -0.55900
C1107       C  0.55397410  0.60279739  0.06173851     0.95400
O1108       O  0.94997843  0.56748417  0.05266368    -0.55400
Tb1109     Tb  0.55699595  0.51394010  0.04020364     1.78100
O1110       O  0.89525478  0.96095676  0.02712087    -0.55900
O1111       O  0.00021085  0.94397509  0.02272665    -0.74800
O1112       O  0.57038416  0.58367199  0.05860283    -0.74100
O1113       O  0.53557733  0.51491154  0.46314471    -0.59300
C1114       C  0.96458199  0.92451749  0.01797727     0.95000
O1115       O  0.98333439  0.51382195  0.11695720    -0.71300
C1116       C  0.88640849  0.46179644  0.07040795     0.78400
C1117       C  0.58060371  0.96272780  0.07062123     0.79400
O1118       O  0.60344513  0.53767996  0.48079949    -0.56900
O1119       O  0.56685953  0.95844328  0.02866076    -0.48500
O1120       O  0.98222055  0.51178223  0.46252651    -0.74500
O1121       O  0.53536833  0.51422906  0.11729381    -0.58500
C1122       C  0.50925825  0.51387684  0.13848646     0.93200
C1123       C  0.50901950  0.51354109  0.44148150     0.94400
C1124       C  0.93836550  0.56540719  0.50999014     0.78700
O1125       O  0.91466821  0.48666824  0.09922951    -0.47900
O1126       O  0.93964418  0.03901888  0.48123005    -0.49000
O1127       O  0.94810941  0.94353427  0.02210952    -0.61900
O1128       O  0.51838984  0.58340514  0.05611852    -0.63000
C1129       C  0.63171271  0.56470279  0.25878622     0.79500
Tb1130     Tb  0.96137967  0.51338381  0.28970601     1.80700
O1131       O  0.62293912  0.56809137  0.30140925    -0.48500
O1132       O  0.58120221  0.99099024  0.34848013    -0.55900
C1133       C  0.55398842  0.60283578  0.31179649     0.95400
O1134       O  0.95001934  0.56754484  0.30266453    -0.55400
Tb1135     Tb  0.55701030  0.51398130  0.29021848     1.78100
O1136       O  0.89528501  0.96102481  0.27708636    -0.55900
O1137       O  0.00022871  0.94399956  0.27279222    -0.74800
O1138       O  0.57039272  0.58370467  0.30865382    -0.74100
O1139       O  0.53560751  0.51496066  0.21314937    -0.59300
C1140       C  0.96460164  0.92454856  0.26802257     0.95000
O1141       O  0.98332528  0.51382029  0.36695925    -0.71300
C1142       C  0.88642893  0.46185789  0.32037000     0.78400
C1143       C  0.58064354  0.96279318  0.32062534     0.79400
O1144       O  0.60345278  0.53770514  0.23080919    -0.56500
O1145       O  0.56681529  0.95843536  0.27870126    -0.48500
O1146       O  0.98224651  0.51182115  0.21252265    -0.74500
O1147       O  0.53536436  0.51423877  0.36730152    -0.58500
C1148       C  0.50924399  0.51386649  0.38849027     0.93200
C1149       C  0.50904568  0.51357856  0.19148060     0.94400
C1150       C  0.93842732  0.56548978  0.25998379     0.78700
O1151       O  0.91468332  0.48672216  0.34920092    -0.47900
O1152       O  0.93971198  0.03910836  0.23121869    -0.49000
O1153       O  0.94813805  0.94357921  0.27211539    -0.61900
O1154       O  0.51840784  0.58345373  0.30616109    -0.63000
C1155       C  0.67748629  0.85090271  0.03822884     0.33100
C1156       C  0.67779658  0.85150003  0.13720931     0.33100
C1157       C  0.66146199  0.87377753  0.06367468    -0.03100
C1158       C  0.65459275  0.80541552  0.05935544    -0.03900
C1159       C  0.71649755  0.87364470  0.06389059    -0.03800
C1160       C  0.66145630  0.87415139  0.11438079    -0.03100
C1161       C  0.65471474  0.80564214  0.11004175    -0.03900
C1162       C  0.71689249  0.87402134  0.11460075    -0.03800
C1163       C  0.64330198  0.89292426  0.12981356    -0.29100
N1164       N  0.63266472  0.90367329  0.08981687     0.17400
C1165       C  0.64353547  0.89219688  0.04938628    -0.29200
H1166       H  0.63790718  0.89595834  0.01237413     0.19300
C1167       C  0.63315424  0.76220003  0.12195827    -0.28100
N1168       N  0.62021864  0.73616604  0.07995124     0.16100
C1169       C  0.63302540  0.76197526  0.04153735    -0.28100
C1170       C  0.75385027  0.89236155  0.13022269    -0.28400
N1171       N  0.77523953  0.90284740  0.09033341     0.16600
H1172       H  0.76418463  0.89667491  0.16740989     0.19200
C1173       C  0.75285721  0.89161690  0.04979447    -0.28400
H1174       H  0.76221409  0.89520437  0.01282695     0.19200
H1175       H  0.62715553  0.74997664  0.00364813     0.19200
H1176       H  0.63743550  0.89739920  0.16694931     0.19300
H1177       H  0.62739157  0.75038514  0.15823571     0.19200
C1178       C  0.67748801  0.85091000  0.28822931     0.33100
C1179       C  0.67781445  0.85154150  0.38721219     0.33100
C1180       C  0.66146562  0.87379144  0.31366475    -0.03100
C1181       C  0.65460115  0.80543333  0.30937585    -0.03900
C1182       C  0.71650370  0.87366399  0.31388294    -0.03800
C1183       C  0.66146817  0.87418245  0.36437262    -0.03100
C1184       C  0.65473097  0.80567776  0.36006245    -0.03900
C1185       C  0.71690791  0.87405855  0.36459455    -0.03800
C1186       C  0.64332881  0.89297510  0.37979949    -0.29100
N1187       N  0.63269341  0.90372021  0.33979662     0.17400
C1188       C  0.64354969  0.89222129  0.29936951    -0.29200
H1189       H  0.63792268  0.89598052  0.26235277     0.19300
C1190       C  0.63317258  0.76224216  0.37199965    -0.28100
N1191       N  0.62023230  0.73619574  0.33000190     0.16100
C1192       C  0.63303226  0.76198932  0.29157646    -0.28100
C1193       C  0.75387184  0.89241642  0.38020841    -0.28400
N1194       N  0.77525442  0.90289408  0.34031169     0.16600
H1195       H  0.76421397  0.89674807  0.41739154     0.19200
C1196       C  0.75286214  0.89164228  0.29977854    -0.28400
H1197       H  0.76221286  0.89522119  0.26280571     0.19200
H1198       H  0.62715589  0.74997590  0.25368678     0.19200
H1199       H  0.63747675  0.89747115  0.41692887     0.19300
H1200       H  0.62741542  0.75044133  0.40827841     0.19200
C1201       C  0.67746256  0.85085855  0.48464577    -0.10200
C1202       C  0.67772565  0.85137013  0.44075739    -0.11700
C1203       C  0.67770659  0.85132586  0.19075421    -0.10200
C1204       C  0.67745286  0.85083839  0.23464451    -0.11700
C1205       C  0.59727420  0.68983431  0.32640263    -0.10200
C1206       C  0.57748329  0.64999577  0.32131244    -0.11700
C1207       C  0.81424797  0.92171003  0.33969558    -0.10200
C1208       C  0.84762819  0.93888637  0.33426541    -0.11700
C1209       C  0.61283990  0.92280367  0.33903843    -0.10200
C1210       C  0.59671303  0.94000423  0.33380121    -0.11700
C1211       C  0.57746610  0.64996225  0.07123697    -0.10200
C1212       C  0.59725782  0.68980243  0.07633237    -0.11700
C1213       C  0.84761116  0.93882726  0.08431203    -0.10200
C1214       C  0.81423099  0.92165462  0.08973073    -0.11700
C1215       C  0.59666316  0.93993150  0.08381587    -0.10200
C1216       C  0.61279536  0.92273791  0.08906148    -0.11700
C1217       C  0.90660755  0.60592927  0.24133825    -0.10200
C1218       C  0.92271526  0.58869997  0.24675335    -0.11700
C1219       C  0.94114427  0.87742445  0.25842099    -0.10200
C1220       C  0.92130463  0.83760255  0.25330601    -0.11700
C1221       C  0.70385813  0.60440627  0.23957740    -0.10200
C1222       C  0.67047829  0.58726588  0.24492594    -0.11700
C1223       C  0.90654213  0.60584264  0.49133685    -0.10200
C1224       C  0.92264482  0.58860812  0.49675850    -0.11700
C1225       C  0.94113203  0.87739983  0.00835979    -0.10200
C1226       C  0.92129315  0.83758033  0.00325033    -0.11700
C1227       C  0.67046896  0.58721365  0.99493839    -0.10200
C1228       C  0.70384956  0.60435775  0.98959778    -0.11700
C1229       C  0.84064473  0.67611335  0.38896510    -0.10200
C1230       C  0.84079600  0.67663020  0.34507669    -0.11700
C1231       C  0.84081336  0.67664565  0.09507754    -0.10200
C1232       C  0.84066657  0.67614209  0.13896747    -0.11700
C1233       C  0.84077332  0.67655828  0.54149139     0.33100
C1234       C  0.84057125  0.67592074  0.94250956     0.33100
C1235       C  0.80175302  0.65348423  0.51573531    -0.03100
C1236       C  0.86346329  0.72202735  0.52033166    -0.03900
C1237       C  0.85710227  0.65398163  0.51617858    -0.03800
C1238       C  0.80142035  0.65311525  0.96502810    -0.03100
C1239       C  0.86340302  0.72177404  0.96964433    -0.03900
C1240       C  0.85719001  0.65359191  0.96547037    -0.03800
C1241       C  0.76439317  0.63428521  0.94928470    -0.29100
N1242       N  0.74289352  0.62344418  0.98910100     0.17400
C1243       C  0.76527600  0.63495618  0.52971000    -0.29200
H1244       H  0.75582860  0.63118318  0.56664003     0.19300
C1245       C  0.88516784  0.76519452  0.95768373    -0.28100
N1246       N  0.89814335  0.79123796  0.49967289     0.16100
C1247       C  0.88518168  0.76547026  0.53811534    -0.28100
C1248       C  0.87573379  0.63522446  0.95024163    -0.28400
N1249       N  0.88649203  0.62470982  0.99035070     0.16600
H1250       H  0.88175472  0.63084708  0.91316136     0.19200
C1251       C  0.87531814  0.63595080  0.53065368    -0.28400
H1252       H  0.88092038  0.63228390  0.56772255     0.19200
H1253       H  0.89116211  0.77750284  0.57599741     0.19200
H1254       H  0.75407207  0.62985607  0.91206560     0.19300
H1255       H  0.89114972  0.77699148  0.92139911     0.19200
C1256       C  0.84076727  0.67655945  0.79149200     0.33100
C1257       C  0.84058528  0.67594563  0.69251268     0.33100
C1258       C  0.80175112  0.65348445  0.76572509    -0.03100
C1259       C  0.86345686  0.72203586  0.77034640    -0.03900
C1260       C  0.85710895  0.65399729  0.76617974    -0.03800
C1261       C  0.80142748  0.65312724  0.71501886    -0.03100
C1262       C  0.86340886  0.72179555  0.71966017    -0.03900
C1263       C  0.85720689  0.65362008  0.71547370    -0.03800
C1264       C  0.76440375  0.63431539  0.69926918    -0.29100
N1265       N  0.74289899  0.62347592  0.73908132     0.17400
C1266       C  0.76527485  0.63497068  0.77969326    -0.29200
H1267       H  0.75582469  0.63120150  0.81662256     0.19300
C1268       C  0.88518369  0.76522218  0.70771491    -0.28100
N1269       N  0.89815084  0.79125682  0.74971198     0.16100
C1270       C  0.88517516  0.76547590  0.78814365    -0.28100
C1271       C  0.87577822  0.63528627  0.70024720    -0.28400
N1272       N  0.88654146  0.62477740  0.74035605     0.16600
H1273       H  0.88181661  0.63093108  0.66316926     0.19200
C1274       C  0.87534539  0.63599079  0.78065612    -0.28400
H1275       H  0.88094872  0.63232514  0.81772563     0.19200
H1276       H  0.89114831  0.77749798  0.82603032     0.19200
H1277       H  0.75409016  0.62990388  0.66204959     0.19300
H1278       H  0.89117839  0.77702825  0.67143589     0.19200
C1279       C  0.63170313  0.56465718  0.50878814     0.79500
Tb1280     Tb  0.96134920  0.51333140  0.53971094     1.80700
O1281       O  0.62292633  0.56803118  0.55141368    -0.48500
O1282       O  0.58109110  0.99086227  0.59850111    -0.55900
C1283       C  0.55397431  0.60279719  0.56173849     0.95400
O1284       O  0.94997741  0.56748299  0.55266547    -0.55400
Tb1285     Tb  0.55699633  0.51393998  0.54020345     1.78100
O1286       O  0.89525514  0.96095763  0.52711937    -0.55900
O1287       O  0.00021109  0.94397497  0.52272622    -0.74800
O1288       O  0.57038436  0.58367180  0.55860233    -0.74100
O1289       O  0.53557723  0.51491221  0.96314490    -0.59300
C1290       C  0.96458224  0.92451758  0.51797654     0.95000
O1291       O  0.98333464  0.51382191  0.61695690    -0.71300
C1292       C  0.88640857  0.46179598  0.57040662     0.78400
C1293       C  0.58060440  0.96272793  0.57062139     0.79400
O1294       O  0.60344522  0.53767972  0.98080059    -0.56900
O1295       O  0.56686052  0.95844358  0.52866076    -0.48500
O1296       O  0.98222006  0.51178192  0.96252648    -0.74500
O1297       O  0.53536859  0.51422903  0.61729357    -0.58500
C1298       C  0.50925849  0.51387679  0.63848621     0.93200
C1299       C  0.50901922  0.51354129  0.94148152     0.94400
C1300       C  0.93836480  0.56540628  0.00998872     0.78700
O1301       O  0.91466811  0.48666683  0.59922873    -0.47900
O1302       O  0.93964167  0.03901598  0.98122979    -0.49000
O1303       O  0.94810978  0.94353453  0.52210866    -0.61900
O1304       O  0.51839002  0.58340496  0.55611908    -0.63000
C1305       C  0.63171179  0.56470205  0.75878558     0.79500
Tb1306     Tb  0.96137939  0.51338389  0.78970553     1.80700
O1307       O  0.62293839  0.56809232  0.80140817    -0.48500
O1308       O  0.58120249  0.99099045  0.84847995    -0.55900
C1309       C  0.55398791  0.60283556  0.81179615     0.95400
O1310       O  0.95001883  0.56754458  0.80266415    -0.55400
Tb1311     Tb  0.55700969  0.51398083  0.79021865     1.78100
O1312       O  0.89528447  0.96102688  0.77708630    -0.55900
O1313       O  0.00022749  0.94399905  0.77279251    -0.74800
O1314       O  0.57039189  0.58370409  0.80865381    -0.74100
O1315       O  0.53560751  0.51496039  0.71314927    -0.59300
C1316       C  0.96460047  0.92454824  0.76802229     0.95000
O1317       O  0.98332544  0.51382118  0.86695908    -0.71300
C1318       C  0.88642899  0.46185848  0.82037056     0.78400
C1319       C  0.58064329  0.96279292  0.82062535     0.79400
O1320       O  0.60345183  0.53770287  0.73080935    -0.56500
O1321       O  0.56681422  0.95843443  0.77870166    -0.48500
O1322       O  0.98224652  0.51182085  0.71252239    -0.74500
O1323       O  0.53536381  0.51423808  0.86730169    -0.58500
C1324       C  0.50924378  0.51386663  0.88849026     0.93200
C1325       C  0.50904576  0.51357837  0.69148040     0.94400
C1326       C  0.93842735  0.56549022  0.75998333     0.78700
O1327       O  0.91468373  0.48672119  0.84920146    -0.47900
O1328       O  0.93971227  0.03910910  0.73121797    -0.49000
O1329       O  0.94813702  0.94357910  0.77211449    -0.61900
O1330       O  0.51840741  0.58345389  0.80616034    -0.63000
C1331       C  0.67748646  0.85090260  0.53822863     0.33100
C1332       C  0.67779711  0.85149975  0.63720911     0.33100
C1333       C  0.66146232  0.87377739  0.56367488    -0.03100
C1334       C  0.65459305  0.80541535  0.55935520    -0.03900
C1335       C  0.71649779  0.87364464  0.56389015    -0.03800
C1336       C  0.66145673  0.87415117  0.61438095    -0.03100
C1337       C  0.65471524  0.80564189  0.61004148    -0.03900
C1338       C  0.71689293  0.87402118  0.61460029    -0.03800
C1339       C  0.64330280  0.89292424  0.62981322    -0.29100
N1340       N  0.63266553  0.90367362  0.58981772     0.17400
C1341       C  0.64353598  0.89219720  0.54938579    -0.29200
H1342       H  0.63790850  0.89595837  0.51237914     0.19300
C1343       C  0.63315488  0.76219973  0.62195793    -0.28100
N1344       N  0.62021916  0.73616584  0.57995089     0.16100
C1345       C  0.63302567  0.76197501  0.54153682    -0.28100
C1346       C  0.75385072  0.89236121  0.63022176    -0.28400
N1347       N  0.77523981  0.90284724  0.59033241     0.16600
H1348       H  0.76418535  0.89667432  0.66740933     0.19200
C1349       C  0.75285738  0.89161690  0.54979347    -0.28400
H1350       H  0.76221384  0.89520433  0.51282685     0.19200
H1351       H  0.62715585  0.74997677  0.50364877     0.19200
H1352       H  0.63743580  0.89739973  0.66695354     0.19300
H1353       H  0.62739238  0.75038484  0.65823519     0.19200
C1354       C  0.67748852  0.85090994  0.78822927     0.33100
C1355       C  0.67781437  0.85154119  0.88721217     0.33100
C1356       C  0.66146598  0.87379136  0.81366444    -0.03100
C1357       C  0.65460157  0.80543321  0.80937567    -0.03900
C1358       C  0.71650407  0.87366395  0.81388334    -0.03800
C1359       C  0.66146826  0.87418230  0.86437243    -0.03100
C1360       C  0.65473107  0.80567751  0.86006224    -0.03900
C1361       C  0.71690793  0.87405829  0.86459495    -0.03800
C1362       C  0.64332901  0.89297503  0.87979857    -0.29100
N1363       N  0.63269383  0.90372038  0.83979598     0.17400
C1364       C  0.64355032  0.89222136  0.79936934    -0.29200
H1365       H  0.63792320  0.89598087  0.76235036     0.19300
C1366       C  0.63317265  0.76224185  0.87199927    -0.28100
N1367       N  0.62023278  0.73619554  0.83000150     0.16100
C1368       C  0.63303294  0.76198914  0.79157588    -0.28100
C1369       C  0.75387169  0.89241619  0.88020923    -0.28400
N1370       N  0.77525463  0.90289418  0.84031298     0.16600
H1371       H  0.76421367  0.89674781  0.91739315     0.19200
C1372       C  0.75286271  0.89164258  0.79977938    -0.28400
H1373       H  0.76221364  0.89522176  0.76280735     0.19200
H1374       H  0.62715711  0.74997623  0.75368758     0.19200
H1375       H  0.63747627  0.89747130  0.91693057     0.19300
H1376       H  0.62741518  0.75044095  0.90827797     0.19200
C1377       C  0.67746243  0.85085849  0.98464588    -0.10200
C1378       C  0.67772542  0.85136982  0.94075745    -0.11700
C1379       C  0.67770732  0.85132562  0.69075409    -0.10200
C1380       C  0.67745364  0.85083834  0.73464443    -0.11700
C1381       C  0.59727443  0.68983410  0.82640211    -0.10200
C1382       C  0.57748314  0.64999555  0.82131202    -0.11700
C1383       C  0.81424823  0.92171044  0.83969725    -0.10200
C1384       C  0.84762843  0.93888705  0.83426684    -0.11700
C1385       C  0.61284013  0.92280367  0.83903762    -0.10200
C1386       C  0.59671312  0.94000415  0.83380080    -0.11700
C1387       C  0.57746642  0.64996206  0.57123677    -0.10200
C1388       C  0.59725827  0.68980221  0.57633197    -0.11700
C1389       C  0.84761129  0.93882675  0.58431048    -0.10200
C1390       C  0.81423118  0.92165424  0.58972937    -0.11700
C1391       C  0.59666396  0.93993180  0.58381623    -0.10200
C1392       C  0.61279625  0.92273832  0.58906205    -0.11700
C1393       C  0.90660791  0.60593019  0.74133820    -0.10200
C1394       C  0.92271553  0.58870076  0.74675317    -0.11700
C1395       C  0.94114298  0.87742410  0.75842108    -0.10200
C1396       C  0.92130325  0.83760219  0.75330627    -0.11700
C1397       C  0.70385708  0.60440493  0.73957661    -0.10200
C1398       C  0.67047729  0.58726483  0.74492510    -0.11700
C1399       C  0.90654179  0.60584207  0.99133491    -0.10200
C1400       C  0.92264417  0.58860715  0.99675653    -0.11700
C1401       C  0.94113213  0.87739987  0.50835927    -0.10200
C1402       C  0.92129333  0.83758035  0.50325031    -0.11700
C1403       C  0.67046898  0.58721356  0.49493679    -0.10200
C1404       C  0.70384960  0.60435766  0.48959647    -0.11700
C1405       C  0.84064386  0.67611307  0.88896484    -0.10200
C1406       C  0.84079497  0.67662974  0.84507649    -0.11700
C1407       C  0.84081288  0.67664567  0.59507778    -0.10200
C1408       C  0.84066611  0.67614204  0.63896766    -0.11700
loop_ 
_geom_bond_atom_site_label_1 
_geom_bond_atom_site_label_2 
_geom_bond_distance 
_geom_bond_site_symmetry_2 
_ccdc_geom_bond_type 
C1            C3   1.530       .  S
C1            C5   1.530       .  S
C1            C4   1.531       .  S
C1          C175   1.475       .  S
C2            C6   1.539       .  S
C2            C8   1.540       .  S
C2            C7   1.535       .  S
C2          C173   1.475       .  S
C3           C11   1.373       .  A
C3          C182   1.395   1_554  A
C4           C15   1.375       .  A
C4          C183   1.395   1_554  A
C5           C19   1.373       .  A
C5          C184   1.395   1_554  A
C6            C9   1.382       .  A
C6          C179   1.395       .  A
C7           C13   1.378       .  A
C7          C180   1.395       .  A
C8           C16   1.383       .  A
C8          C181   1.395       .  A
C9           N10   1.359       .  A
C9           H22   1.082       .  S
N10         C187   1.355       .  A
N10         C348   1.404       .  S
C11         N186   1.355   1_554  A
C11          H12   1.082       .  S
C13         N190   1.357       .  A
C13          H23   1.083       .  S
N14          C15   1.356   1_556  A
N14         C189   1.357       .  A
N14         C170   1.402   1_556  S
C15          H21   1.082       .  S
C16          N17   1.359       .  A
C16          H18   1.082       .  S
N17         C195   1.355       .  A
N17         C167   1.405       .  S
C19         N193   1.355   1_554  A
C19          H20   1.082       .  S
C24          C26   1.530       .  S
C24          C28   1.530       .  S
C24          C27   1.531       .  S
C24         C174   1.475       .  S
C25          C29   1.539       .  S
C25          C31   1.540       .  S
C25          C30   1.535       .  S
C25         C176   1.475       .  S
C26          C34   1.373       .  A
C26          C29   1.395       .  A
C27          C38   1.375       .  A
C27          C30   1.395       .  A
C28          C42   1.373       .  A
C28          C31   1.395       .  A
C29          C32   1.382       .  A
C30          C36   1.378       .  A
C31          C39   1.383       .  A
C32          N33   1.359       .  A
C32          H45   1.082       .  S
N33          C34   1.355       .  A
N33         C165   1.404       .  S
C34          H35   1.082       .  S
C36          N37   1.357       .  A
C36          H46   1.083       .  S
N37          C38   1.356       .  A
N37         C164   1.402       .  S
C38          H44   1.082       .  S
C39          N40   1.359       .  A
C39          H41   1.082       .  S
N40          C42   1.355       .  A
N40         C161   1.405       .  S
C42          H43   1.082       .  S
C47          O49   1.258       .  A
C47         O238   1.259   1_554  A
C47         C171   1.438   1_554  S
Tb48         O59   2.324       .  S
Tb48         O52   2.357       .  S
Tb48         O69   2.369   1_545  S
Tb48        O598   2.368   1_554  S
Tb48        O423   2.341   1_545  S
Tb48        O406   2.356   1_545  S
Tb48        O240   2.324   1_554  S
Tb48        O776   2.343       .  S
O49         Tb53   2.355       .  S
O50          C61   1.259       .  A
O50        Tb405   2.367       .  S
C51          O56   1.270       .  A
C51          O72   1.271       .  A
C51         C155   1.437       .  S
O52         C244   1.258       .  A
Tb53         O56   2.339       .  S
Tb53         O65   2.325       .  S
Tb53        O402   2.367   1_545  S
Tb53        O233   2.325   1_554  S
Tb53        O238   2.368   1_554  S
Tb53        O415   2.356   1_545  S
Tb53       O1111   2.340   1_545  S
O54         C412   1.258       .  A
O54        Tb400   2.356       .  S
O55          C58   1.270       .  A
O55       Tb1109   2.340       .  S
O57          C67   1.270       .  A
O57        Tb229   2.325       .  S
C58          O71   1.271       .  A
C58         C169   1.436       .  S
O59         C770   1.270       .  A
C60          O69   1.259       .  A
C60         O406   1.258       .  A
C60         C509   1.438       .  S
C61          O63   1.258       .  A
C61         C159   1.438       .  S
O62         C223   1.259       .  A
O62        Tb229   2.368       .  S
O63        Tb405   2.356       .  S
O64         C771   1.270       .  A
O64        Tb224   2.324       .  S
O65          C66   1.270       .  A
C66         O763   1.270   1_455  A
C66          C93   1.460       .  S
C67         O768   1.270   1_455  A
C67          C92   1.460       .  S
C68         O228   1.258       .  A
C68         O422   1.259       .  A
C68         C168   1.439       .  S
O70         C420   1.259       .  A
O70        Tb576   2.368       .  S
O71        Tb400   2.341       .  S
O72        Tb752   2.343   1_455  S
C73          O88   1.259       .  A
C73          O75   1.258       .  A
C73         C166   1.438       .  S
Tb74         O90   2.324       .  S
Tb74         O85   2.324       .  S
Tb74         O78   2.357       .  S
Tb74         O95   2.369   1_545  S
Tb74        O448   2.368       .  S
Tb74        O449   2.341   1_545  S
Tb74        O432   2.356   1_545  S
Tb74        O802   2.343       .  S
O75         Tb79   2.355       .  S
O76          C87   1.259       .  A
O76        Tb431   2.367       .  S
C77          O82   1.270       .  A
C77          O98   1.271       .  A
C77         C150   1.437       .  S
O78          C94   1.258       .  A
Tb79         O83   2.325       .  S
Tb79         O88   2.368       .  S
Tb79         O82   2.339       .  S
Tb79         O91   2.325       .  S
Tb79        O428   2.367   1_545  S
Tb79        O441   2.356   1_545  S
Tb79       O1137   2.340   1_545  S
O80         C438   1.258       .  A
O80        Tb426   2.356       .  S
O81          C84   1.270       .  A
O81       Tb1135   2.340       .  S
O83          C93   1.270       .  A
C84          O97   1.271       .  A
C84         C163   1.436       .  S
O85         C796   1.270       .  A
C86          O95   1.259       .  A
C86         O432   1.258       .  A
C86         C504   1.439       .  S
C87          O89   1.258       .  A
C87         C154   1.438       .  S
O89        Tb431   2.356       .  S
O90         C797   1.270       .  A
O91          C92   1.270       .  A
C92         O789   1.270   1_455  A
C93         O794   1.270   1_455  A
C94         O448   1.259       .  A
C94         C162   1.439       .  S
O96         C446   1.259       .  A
O96        Tb426   2.368       .  S
O97        Tb426   2.341       .  S
O98        Tb778   2.343   1_455  S
C99         C101   1.530       .  S
C99         C103   1.530       .  S
C99         C102   1.531       .  S
C99         C321   1.475   1_554  S
C100        C104   1.539       .  S
C100        C106   1.539       .  S
C100        C105   1.535       .  S
C100        C147   1.475       .  S
C101        C109   1.373       .  A
C101        C104   1.395       .  A
C102        C113   1.375       .  A
C102        C105   1.395       .  A
C103        C117   1.373       .  A
C103        C106   1.395       .  A
C104        C107   1.382       .  A
C105        C111   1.378       .  A
C106        C114   1.382       .  A
C107        N108   1.359       .  A
C107        H120   1.082       .  S
N108        C109   1.355       .  A
N108        C160   1.404       .  S
C109        H110   1.082       .  S
C111        N112   1.357       .  A
C111        H121   1.083       .  S
N112        C113   1.356       .  A
N112        C156   1.403       .  S
C113        H119   1.082       .  S
C114        N115   1.359       .  A
C114        H116   1.082       .  S
N115        C117   1.355       .  A
N115        C158   1.404       .  S
C117        H118   1.082       .  S
C122        C124   1.530       .  S
C122        C126   1.530       .  S
C122        C125   1.531       .  S
C122        C148   1.475       .  S
C123        C127   1.539       .  S
C123        C129   1.539       .  S
C123        C128   1.535       .  S
C123        C146   1.475       .  S
C124        C132   1.373       .  A
C124        C127   1.395       .  A
C125        C136   1.375       .  A
C125        C128   1.395       .  A
C126        C140   1.373       .  A
C126        C129   1.395       .  A
C127        C130   1.382       .  A
C128        C134   1.378       .  A
C129        C137   1.382       .  A
C130        N131   1.359       .  A
C130        H143   1.082       .  S
N131        C132   1.355       .  A
N131        C153   1.404       .  S
C132        H133   1.082       .  S
C134        N135   1.357       .  A
C134        H144   1.083       .  S
N135        C136   1.356       .  A
N135        C149   1.403       .  S
C136        H142   1.082       .  S
C137        N138   1.359       .  A
C137        H139   1.082       .  S
N138        C140   1.355       .  A
N138        C151   1.404       .  S
C140        H141   1.082       .  S
C145        C275   1.475       .  S
C145        C146   1.209       .  T
C147        C148   1.209       .  T
C149        C150   1.207       .  T
C151        C152   1.208       .  T
C152        C438   1.439       .  S
C153        C154   1.208       .  T
C155        C156   1.207       .  T
C157        C412   1.438       .  S
C157        C158   1.208       .  T
C159        C160   1.208       .  T
C161        C162   1.209       .  T
C163        C164   1.206       .  T
C165        C166   1.208       .  T
C167        C168   1.209       .  T
C169        C170   1.206       .  T
C171        C172   1.208       .  T
C172        N186   1.404       .  S
C173        C174   1.209       .  T
C175        C176   1.209       .  T
C177        C179   1.530       .  S
C177        C181   1.530       .  S
C177        C180   1.531       .  S
C177        C351   1.475       .  S
C178        C182   1.539       .  S
C178        C184   1.540       .  S
C178        C183   1.535       .  S
C178        C349   1.475       .  S
C179        C187   1.373       .  A
C180        C191   1.375       .  A
C181        C195   1.373       .  A
C182        C185   1.382       .  A
C183        C189   1.378       .  A
C184        C192   1.383       .  A
C185        N186   1.359       .  A
C185        H198   1.082       .  S
C187        H188   1.082       .  S
C189        H199   1.083       .  S
N190        C191   1.356       .  A
N190        C346   1.402       .  S
C191        H197   1.082       .  S
C192        N193   1.359       .  A
C192        H194   1.082       .  S
N193        C343   1.405       .  S
C195        H196   1.082       .  S
C200        C202   1.530       .  S
C200        C204   1.530       .  S
C200        C203   1.531       .  S
C200        C350   1.475       .  S
C201        C205   1.539       .  S
C201        C207   1.540       .  S
C201        C206   1.535       .  S
C201        C352   1.475       .  S
C202        C210   1.373       .  A
C202        C205   1.395       .  A
C203        C214   1.375       .  A
C203        C206   1.395       .  A
C204        C218   1.373       .  A
C204        C207   1.395       .  A
C205        C208   1.382       .  A
C206        C212   1.378       .  A
C207        C215   1.383       .  A
C208        N209   1.359       .  A
C208        H221   1.082       .  S
N209        C210   1.355       .  A
N209        C341   1.404       .  S
C210        H211   1.082       .  S
C212        N213   1.357       .  A
C212        H222   1.083       .  S
N213        C214   1.356       .  A
N213        C340   1.402       .  S
C214        H220   1.082       .  S
C215        N216   1.359       .  A
C215        H217   1.082       .  S
N216        C218   1.355       .  A
N216        C337   1.405       .  S
C218        H219   1.082       .  S
C223        O225   1.258       .  A
C223        C347   1.438       .  S
Tb224       O422   2.368       .  S
Tb224       O599   2.341   1_545  S
Tb224       O582   2.356   1_545  S
Tb224       O235   2.324       .  S
Tb224       O228   2.357       .  S
Tb224       O952   2.343       .  S
Tb224       O245   2.369   1_545  S
O225       Tb229   2.355       .  S
O226        C237   1.259       .  A
O226       Tb581   2.367       .  S
C227        O232   1.270       .  A
C227        O248   1.271       .  A
C227        C331   1.437       .  S
Tb229       O578   2.367   1_545  S
Tb229       O232   2.339       .  S
Tb229       O591   2.356   1_545  S
Tb229       O241   2.325       .  S
Tb229      O1287   2.340   1_545  S
O230        C588   1.258       .  A
O230       Tb576   2.356       .  S
O231        C234   1.270       .  A
O231      Tb1285   2.340       .  S
O233        C243   1.270       .  A
C234        O247   1.271       .  A
C234        C345   1.436       .  S
O235        C946   1.270       .  A
C236        O582   1.258       .  A
C236        O245   1.259       .  A
C236        C685   1.438       .  S
C237        O239   1.258       .  A
C237        C335   1.438       .  S
O239       Tb581   2.356       .  S
O240        C947   1.270       .  A
O241        C242   1.270       .  A
C242        O939   1.270   1_455  A
C242        C269   1.460       .  S
C243        O944   1.270   1_455  A
C243        C268   1.460       .  S
C244        O598   1.259   1_554  A
C244        C344   1.439   1_554  S
O246        C596   1.259   1_556  A
O246       Tb400   2.368   1_556  S
O247       Tb576   2.341       .  S
O248       Tb928   2.343   1_455  S
C249        O264   1.259       .  A
C249        O251   1.258       .  A
C249        C342   1.438       .  S
Tb250       O624   2.368       .  S
Tb250       O625   2.341   1_545  S
Tb250       O608   2.356   1_545  S
Tb250       O266   2.324       .  S
Tb250       O261   2.324       .  S
Tb250       O254   2.357       .  S
Tb250       O978   2.343       .  S
Tb250       O271   2.369   1_545  S
O251       Tb255   2.355       .  S
O252        C263   1.259       .  A
O252       Tb607   2.367       .  S
C253        O258   1.270       .  A
C253        O274   1.271       .  A
C253        C326   1.437       .  S
O254        C270   1.258       .  A
Tb255       O604   2.367   1_545  S
Tb255       O259   2.325       .  S
Tb255       O264   2.368       .  S
Tb255       O258   2.339       .  S
Tb255       O617   2.356   1_545  S
Tb255       O267   2.325       .  S
Tb255      O1313   2.340   1_545  S
O256        C614   1.258       .  A
O256       Tb602   2.356       .  S
O257        C260   1.270       .  A
O257      Tb1311   2.340       .  S
O259        C269   1.270       .  A
C260        O273   1.271       .  A
C260        C339   1.436       .  S
O261        C972   1.270       .  A
C262        O608   1.258       .  A
C262        O271   1.259       .  A
C262        C680   1.439       .  S
C263        O265   1.258       .  A
C263        C330   1.438       .  S
O265       Tb607   2.356       .  S
O266        C973   1.270       .  A
O267        C268   1.270       .  A
C268        O965   1.270   1_455  A
C269        O970   1.270   1_455  A
C270        O624   1.259       .  A
C270        C338   1.439       .  S
O272        C622   1.259       .  A
O272       Tb602   2.368       .  S
O273       Tb602   2.341       .  S
O274       Tb954   2.343   1_455  S
C275        C277   1.530       .  S
C275        C279   1.530       .  S
C275        C278   1.531       .  S
C276        C280   1.539       .  S
C276        C282   1.539       .  S
C276        C281   1.535       .  S
C276        C323   1.475       .  S
C277        C285   1.373       .  A
C277        C280   1.395       .  A
C278        C289   1.375       .  A
C278        C281   1.395       .  A
C279        C293   1.373       .  A
C279        C282   1.395       .  A
C280        C283   1.382       .  A
C281        C287   1.378       .  A
C282        C290   1.382       .  A
C283        N284   1.359       .  A
C283        H296   1.083       .  S
N284        C285   1.355       .  A
N284        C336   1.404       .  S
C285        H286   1.082       .  S
C287        N288   1.357       .  A
C287        H297   1.083       .  S
N288        C289   1.356       .  A
N288        C332   1.403       .  S
C289        H295   1.082       .  S
C290        N291   1.359       .  A
C290        H292   1.082       .  S
N291        C293   1.355       .  A
N291        C334   1.404       .  S
C293        H294   1.082       .  S
C298        C300   1.530       .  S
C298        C302   1.530       .  S
C298        C301   1.531       .  S
C298        C324   1.475       .  S
C299        C303   1.539       .  S
C299        C305   1.539       .  S
C299        C304   1.535       .  S
C299        C322   1.475       .  S
C300        C308   1.373       .  A
C300        C303   1.395       .  A
C301        C312   1.375       .  A
C301        C304   1.395       .  A
C302        C316   1.373       .  A
C302        C305   1.395       .  A
C303        C306   1.382       .  A
C304        C310   1.378       .  A
C305        C313   1.382       .  A
C306        N307   1.359       .  A
C306        H319   1.082       .  S
N307        C308   1.355       .  A
N307        C329   1.404       .  S
C308        H309   1.082       .  S
C310        N311   1.357       .  A
C310        H320   1.083       .  S
N311        C312   1.356       .  A
N311        C325   1.403       .  S
C312        H318   1.082       .  S
C313        N314   1.359       .  A
C313        H315   1.082       .  S
N314        C316   1.355       .  A
N314        C327   1.404       .  S
C316        H317   1.082       .  S
C321        C322   1.209       .  T
C323        C324   1.209       .  T
C325        C326   1.207       .  T
C327        C328   1.208       .  T
C328        C614   1.439       .  S
C329        C330   1.208       .  T
C331        C332   1.207       .  T
C333        C588   1.438       .  S
C333        C334   1.208       .  T
C335        C336   1.208       .  T
C337        C338   1.209       .  T
C339        C340   1.206       .  T
C341        C342   1.208       .  T
C343        C344   1.209       .  T
C345        C346   1.206       .  T
C347        C348   1.208       .  T
C349        C350   1.209       .  T
C351        C352   1.209       .  T
C353        C355   1.530       .  S
C353        C357   1.530       .  S
C353        C356   1.531       .  S
C353        C527   1.475       .  S
C354        C358   1.539       .  S
C354        C360   1.540       .  S
C354        C359   1.535       .  S
C354        C525   1.475       .  S
C355        C363   1.373       .  A
C355        C534   1.395   1_554  A
C356        C367   1.375       .  A
C356        C535   1.395   1_554  A
C357        C371   1.373       .  A
C357        C536   1.395   1_554  A
C358        C531   1.395       .  A
C358        C361   1.382       .  A
C359        C532   1.395       .  A
C359        C365   1.378       .  A
C360        C533   1.395       .  A
C360        C368   1.383       .  A
C361        N362   1.359       .  A
C361        H374   1.082       .  S
N362        C539   1.355       .  A
N362        C700   1.404       .  S
C363        N538   1.355   1_554  A
C363        H364   1.082       .  S
C365        N542   1.357       .  A
C365        H375   1.083       .  S
N366        C541   1.357       .  A
N366        C367   1.356   1_556  A
N366        C522   1.402   1_556  S
C367        H373   1.082       .  S
C368        N369   1.359       .  A
C368        H370   1.082       .  S
N369        C547   1.355       .  A
N369        C519   1.405       .  S
C371        N545   1.355   1_554  A
C371        H372   1.082       .  S
C376        C378   1.530       .  S
C376        C380   1.530       .  S
C376        C379   1.531       .  S
C376        C526   1.475       .  S
C377        C381   1.539       .  S
C377        C383   1.540       .  S
C377        C382   1.535       .  S
C377        C528   1.475       .  S
C378        C386   1.373       .  A
C378        C381   1.395       .  A
C379        C390   1.375       .  A
C379        C382   1.395       .  A
C380        C394   1.373       .  A
C380        C383   1.395       .  A
C381        C384   1.382       .  A
C382        C388   1.378       .  A
C383        C391   1.383       .  A
C384        N385   1.359       .  A
C384        H397   1.082       .  S
N385        C386   1.355       .  A
N385        C517   1.404       .  S
C386        H387   1.082       .  S
C388        N389   1.357       .  A
C388        H398   1.083       .  S
N389        C390   1.356       .  A
N389        C516   1.402       .  S
C390        H396   1.082       .  S
C391        N392   1.359       .  A
C391        H393   1.082       .  S
N392        C394   1.355       .  A
N392        C513   1.405       .  S
C394        H395   1.082       .  S
C399        O590   1.259   1_554  A
C399        O401   1.258       .  A
C399        C523   1.438   1_554  S
Tb400       O592   2.324   1_554  S
Tb400       O411   2.324       .  S
Tb400       O404   2.357       .  S
Tb400      O1128   2.343       .  S
Tb400       O421   2.369       .  S
O401       Tb405   2.355       .  S
O402        C413   1.259       .  A
C403        O408   1.270       .  A
C403        O424   1.271       .  A
C403        C507   1.437       .  S
O404        C596   1.258       .  A
Tb405       O585   2.325   1_554  S
Tb405       O590   2.368   1_554  S
Tb405       O408   2.339       .  S
Tb405       O417   2.325       .  S
Tb405       O759   2.340       .  S
O407        C410   1.270       .  A
O407       Tb757   2.340   1_565  S
O409        C419   1.270       .  A
O409       Tb581   2.325       .  S
C410        O423   1.271       .  A
C410        C521   1.436       .  S
O411       C1122   1.270       .  A
C412        O421   1.259       .  A
C413        O415   1.258       .  A
C413        C511   1.438       .  S
O414        C575   1.259       .  A
O414       Tb581   2.368       .  S
O416       C1123   1.270       .  A
O416       Tb576   2.324       .  S
O417        C418   1.270       .  A
C418       O1115   1.270   1_455  A
C418        C445   1.460       .  S
C419       O1120   1.270   1_455  A
C419        C444   1.460       .  S
C420        O580   1.258       .  A
C420        C520   1.439       .  S
O424      Tb1104   2.343   1_455  S
C425        O440   1.259       .  A
C425        O427   1.258       .  A
C425        C518   1.438       .  S
Tb426       O442   2.324       .  S
Tb426       O437   2.324       .  S
Tb426       O430   2.357       .  S
Tb426      O1154   2.343       .  S
Tb426       O447   2.369       .  S
O427       Tb431   2.355       .  S
O428        C439   1.259       .  A
C429        O434   1.270       .  A
C429        O450   1.271       .  A
C429        C502   1.437       .  S
O430        C446   1.258       .  A
Tb431       O435   2.325       .  S
Tb431       O440   2.368       .  S
Tb431       O434   2.339       .  S
Tb431       O443   2.325       .  S
Tb431       O785   2.340       .  S
O433        C436   1.270       .  A
O433       Tb783   2.340   1_565  S
O435        C445   1.270       .  A
C436        O449   1.271       .  A
C436        C515   1.436       .  S
O437       C1148   1.270       .  A
C438        O447   1.259       .  A
C439        O441   1.258       .  A
C439        C506   1.438       .  S
O442       C1149   1.270       .  A
O443        C444   1.270       .  A
C444       O1141   1.270   1_455  A
C445       O1146   1.270   1_455  A
C446        C514   1.439       .  S
O450      Tb1130   2.343   1_455  S
C451        C453   1.530       .  S
C451        C455   1.530       .  S
C451        C454   1.531       .  S
C451        C673   1.475   1_554  S
C452        C456   1.539       .  S
C452        C458   1.539       .  S
C452        C457   1.535       .  S
C452        C499   1.475       .  S
C453        C461   1.373       .  A
C453        C456   1.395       .  A
C454        C465   1.375       .  A
C454        C457   1.395       .  A
C455        C469   1.373       .  A
C455        C458   1.395       .  A
C456        C459   1.382       .  A
C457        C463   1.378       .  A
C458        C466   1.382       .  A
C459        N460   1.359       .  A
C459        H472   1.082       .  S
N460        C461   1.355       .  A
N460        C512   1.404       .  S
C461        H462   1.082       .  S
C463        N464   1.357       .  A
C463        H473   1.083       .  S
N464        C465   1.356       .  A
N464        C508   1.403       .  S
C465        H471   1.082       .  S
C466        N467   1.359       .  A
C466        H468   1.082       .  S
N467        C469   1.355       .  A
N467        C510   1.404       .  S
C469        H470   1.082       .  S
C474        C476   1.530       .  S
C474        C478   1.530       .  S
C474        C477   1.531       .  S
C474        C500   1.475       .  S
C475        C479   1.539       .  S
C475        C481   1.539       .  S
C475        C480   1.535       .  S
C475        C498   1.475       .  S
C476        C484   1.373       .  A
C476        C479   1.395       .  A
C477        C488   1.375       .  A
C477        C480   1.395       .  A
C478        C492   1.373       .  A
C478        C481   1.395       .  A
C479        C482   1.382       .  A
C480        C486   1.378       .  A
C481        C489   1.382       .  A
C482        N483   1.359       .  A
C482        H495   1.082       .  S
N483        C484   1.355       .  A
N483        C505   1.404       .  S
C484        H485   1.082       .  S
C486        N487   1.357       .  A
C486        H496   1.083       .  S
N487        C488   1.356       .  A
N487        C501   1.403       .  S
C488        H494   1.082       .  S
C489        N490   1.359       .  A
C489        H491   1.082       .  S
N490        C492   1.355       .  A
N490        C503   1.404       .  S
C492        H493   1.082       .  S
C497        C627   1.475       .  S
C497        C498   1.209       .  T
C499        C500   1.209       .  T
C501        C502   1.207       .  T
C503        C504   1.208       .  T
C505        C506   1.208       .  T
C507        C508   1.207       .  T
C509        C510   1.208       .  T
C511        C512   1.208       .  T
C513        C514   1.209       .  T
C515        C516   1.206       .  T
C517        C518   1.208       .  T
C519        C520   1.209       .  T
C521        C522   1.206       .  T
C523        C524   1.208       .  T
C524        N538   1.404       .  S
C525        C526   1.209       .  T
C527        C528   1.209       .  T
C529        C531   1.530       .  S
C529        C533   1.530       .  S
C529        C532   1.531       .  S
C529        C703   1.475       .  S
C530        C534   1.539       .  S
C530        C536   1.540       .  S
C530        C535   1.535       .  S
C530        C701   1.475       .  S
C531        C539   1.373       .  A
C532        C543   1.375       .  A
C533        C547   1.373       .  A
C534        C537   1.382       .  A
C535        C541   1.378       .  A
C536        C544   1.383       .  A
C537        N538   1.359       .  A
C537        H550   1.082       .  S
C539        H540   1.082       .  S
C541        H551   1.083       .  S
N542        C543   1.356       .  A
N542        C698   1.402       .  S
C543        H549   1.082       .  S
C544        N545   1.359       .  A
C544        H546   1.082       .  S
N545        C695   1.405       .  S
C547        H548   1.082       .  S
C552        C554   1.530       .  S
C552        C556   1.530       .  S
C552        C555   1.531       .  S
C552        C702   1.475       .  S
C553        C557   1.539       .  S
C553        C559   1.540       .  S
C553        C558   1.535       .  S
C553        C704   1.475       .  S
C554        C562   1.373       .  A
C554        C557   1.395       .  A
C555        C566   1.375       .  A
C555        C558   1.395       .  A
C556        C570   1.373       .  A
C556        C559   1.395       .  A
C557        C560   1.382       .  A
C558        C564   1.378       .  A
C559        C567   1.383       .  A
C560        N561   1.359       .  A
C560        H573   1.082       .  S
N561        C562   1.355       .  A
N561        C693   1.404       .  S
C562        H563   1.082       .  S
C564        N565   1.357       .  A
C564        H574   1.083       .  S
N565        C566   1.356       .  A
N565        C692   1.402       .  S
C566        H572   1.082       .  S
C567        N568   1.359       .  A
C567        H569   1.082       .  S
N568        C570   1.355       .  A
N568        C689   1.405       .  S
C570        H571   1.082       .  S
C575        O577   1.258       .  A
C575        C699   1.438       .  S
Tb576       O587   2.324       .  S
Tb576       O580   2.357       .  S
Tb576      O1304   2.343       .  S
Tb576       O597   2.369       .  S
O577       Tb581   2.355       .  S
O578        C589   1.259       .  A
C579        O584   1.270       .  A
C579        O600   1.271       .  A
C579        C683   1.437       .  S
Tb581       O584   2.339       .  S
Tb581       O593   2.325       .  S
Tb581       O935   2.340       .  S
O583        C586   1.270       .  A
O583       Tb933   2.340   1_565  S
O585        C595   1.270       .  A
C586        O599   1.271       .  A
C586        C697   1.436       .  S
O587       C1298   1.270       .  A
C588        O597   1.259       .  A
C589        O591   1.258       .  A
C589        C687   1.438       .  S
O592       C1299   1.270       .  A
O593        C594   1.270       .  A
C594       O1291   1.270   1_455  A
C594        C621   1.460       .  S
C595       O1296   1.270   1_455  A
C595        C620   1.460       .  S
C596        C696   1.439   1_554  S
O600      Tb1280   2.343   1_455  S
C601        O616   1.259       .  A
C601        O603   1.258       .  A
C601        C694   1.438       .  S
Tb602       O618   2.324       .  S
Tb602       O613   2.324       .  S
Tb602       O606   2.357       .  S
Tb602      O1330   2.343       .  S
Tb602       O623   2.369       .  S
O603       Tb607   2.355       .  S
O604        C615   1.259       .  A
C605        O610   1.270       .  A
C605        O626   1.271       .  A
C605        C678   1.437       .  S
O606        C622   1.258       .  A
Tb607       O611   2.325       .  S
Tb607       O616   2.368       .  S
Tb607       O610   2.339       .  S
Tb607       O619   2.325       .  S
Tb607       O961   2.340       .  S
O609        C612   1.270       .  A
O609       Tb959   2.340   1_565  S
O611        C621   1.270       .  A
C612        O625   1.271       .  A
C612        C691   1.436       .  S
O613       C1324   1.270       .  A
C614        O623   1.259       .  A
C615        O617   1.258       .  A
C615        C682   1.438       .  S
O618       C1325   1.270       .  A
O619        C620   1.270       .  A
C620       O1317   1.270   1_455  A
C621       O1322   1.270   1_455  A
C622        C690   1.439       .  S
O626      Tb1306   2.343   1_455  S
C627        C629   1.530       .  S
C627        C631   1.530       .  S
C627        C630   1.531       .  S
C628        C632   1.539       .  S
C628        C634   1.539       .  S
C628        C633   1.535       .  S
C628        C675   1.475       .  S
C629        C637   1.373       .  A
C629        C632   1.395       .  A
C630        C641   1.375       .  A
C630        C633   1.395       .  A
C631        C645   1.373       .  A
C631        C634   1.395       .  A
C632        C635   1.382       .  A
C633        C639   1.378       .  A
C634        C642   1.382       .  A
C635        N636   1.359       .  A
C635        H648   1.083       .  S
N636        C637   1.355       .  A
N636        C688   1.404       .  S
C637        H638   1.082       .  S
C639        N640   1.357       .  A
C639        H649   1.083       .  S
N640        C641   1.356       .  A
N640        C684   1.403       .  S
C641        H647   1.082       .  S
C642        N643   1.359       .  A
C642        H644   1.082       .  S
N643        C645   1.355       .  A
N643        C686   1.404       .  S
C645        H646   1.082       .  S
C650        C652   1.530       .  S
C650        C654   1.530       .  S
C650        C653   1.531       .  S
C650        C676   1.475       .  S
C651        C655   1.539       .  S
C651        C657   1.539       .  S
C651        C656   1.535       .  S
C651        C674   1.475       .  S
C652        C660   1.373       .  A
C652        C655   1.395       .  A
C653        C664   1.375       .  A
C653        C656   1.395       .  A
C654        C668   1.373       .  A
C654        C657   1.395       .  A
C655        C658   1.382       .  A
C656        C662   1.378       .  A
C657        C665   1.382       .  A
C658        N659   1.359       .  A
C658        H671   1.082       .  S
N659        C660   1.355       .  A
N659        C681   1.404       .  S
C660        H661   1.082       .  S
C662        N663   1.357       .  A
C662        H672   1.083       .  S
N663        C664   1.356       .  A
N663        C677   1.403       .  S
C664        H670   1.082       .  S
C665        N666   1.359       .  A
C665        H667   1.082       .  S
N666        C668   1.355       .  A
N666        C679   1.404       .  S
C668        H669   1.082       .  S
C673        C674   1.209       .  T
C675        C676   1.209       .  T
C677        C678   1.207       .  T
C679        C680   1.208       .  T
C681        C682   1.208       .  T
C683        C684   1.207       .  T
C685        C686   1.208       .  T
C687        C688   1.208       .  T
C689        C690   1.209       .  T
C691        C692   1.206       .  T
C693        C694   1.208       .  T
C695        C696   1.209       .  T
C697        C698   1.206       .  T
C699        C700   1.208       .  T
C701        C702   1.209       .  T
C703        C704   1.209       .  T
C705        C707   1.530       .  S
C705        C709   1.530       .  S
C705        C708   1.531       .  S
C705        C879   1.475       .  S
C706        C710   1.539       .  S
C706        C712   1.540       .  S
C706        C711   1.535       .  S
C706        C877   1.475       .  S
C707        C715   1.373       .  A
C707        C886   1.395   1_554  A
C708        C719   1.375       .  A
C708        C887   1.395   1_554  A
C709        C723   1.373       .  A
C709        C888   1.395   1_554  A
C710        C883   1.395       .  A
C710        C713   1.382       .  A
C711        C884   1.395       .  A
C711        C717   1.378       .  A
C712        C885   1.395       .  A
C712        C720   1.383       .  A
C713        N714   1.359       .  A
C713        H726   1.082       .  S
N714        C891   1.355       .  A
N714       C1052   1.404       .  S
C715        N890   1.355   1_554  A
C715        H716   1.082       .  S
C717        N894   1.357       .  A
C717        H727   1.083       .  S
N718        C893   1.357       .  A
N718        C719   1.356   1_556  A
N718        C874   1.402   1_556  S
C719        H725   1.082       .  S
C720        N721   1.359       .  A
C720        H722   1.082       .  S
N721        C899   1.355       .  A
N721        C871   1.405       .  S
C723        N897   1.355   1_554  A
C723        H724   1.082       .  S
C728        C730   1.530       .  S
C728        C732   1.530       .  S
C728        C731   1.531       .  S
C728        C878   1.475       .  S
C729        C733   1.539       .  S
C729        C735   1.540       .  S
C729        C734   1.535       .  S
C729        C880   1.475       .  S
C730        C738   1.373       .  A
C730        C733   1.395       .  A
C731        C742   1.375       .  A
C731        C734   1.395       .  A
C732        C746   1.373       .  A
C732        C735   1.395       .  A
C733        C736   1.382       .  A
C734        C740   1.378       .  A
C735        C743   1.383       .  A
C736        N737   1.359       .  A
C736        H749   1.082       .  S
N737        C738   1.355       .  A
N737        C869   1.404       .  S
C738        H739   1.082       .  S
C740        N741   1.357       .  A
C740        H750   1.083       .  S
N741        C742   1.356       .  A
N741        C868   1.402       .  S
C742        H748   1.082       .  S
C743        N744   1.359       .  A
C743        H745   1.082       .  S
N744        C746   1.355       .  A
N744        C865   1.405       .  S
C746        H747   1.082       .  S
C751        O942   1.259   1_554  A
C751        O753   1.258       .  A
C751        C875   1.438   1_554  S
Tb752      O1302   2.368   1_554  S
Tb752      O1127   2.341   1_545  S
Tb752      O1110   2.356   1_545  S
Tb752       O944   2.324   1_554  S
Tb752       O763   2.324       .  S
Tb752       O756   2.357       .  S
Tb752       O773   2.369   1_545  S
O753       Tb757   2.355       .  S
O754        C765   1.259       .  A
O754      Tb1109   2.367       .  S
C755        O760   1.270       .  A
C755        O776   1.271       .  A
C755        C859   1.437       .  S
O756        C948   1.258       .  A
Tb757      O1106   2.367   1_545  S
Tb757       O937   2.325   1_554  S
Tb757       O942   2.368   1_554  S
Tb757       O760   2.339       .  S
Tb757      O1119   2.356   1_545  S
Tb757       O769   2.325       .  S
O758       C1116   1.258       .  A
O758      Tb1104   2.356       .  S
O759        C762   1.270   1_455  A
O761        C771   1.270       .  A
O761       Tb933   2.325       .  S
C762        O775   1.271       .  A
C762        C873   1.436       .  S
C764       O1110   1.258       .  A
C764        O773   1.259       .  A
C764       C1213   1.438       .  S
C765        O767   1.258       .  A
C765        C863   1.438       .  S
O766        C927   1.259       .  A
O766       Tb933   2.368       .  S
O767      Tb1109   2.356       .  S
O768       Tb928   2.324       .  S
O769        C770   1.270       .  A
C770        C797   1.460       .  S
C771        C796   1.460       .  S
C772        O932   1.258       .  A
C772       O1126   1.259       .  A
C772        C872   1.439       .  S
O774       C1124   1.259       .  A
O774      Tb1280   2.368       .  S
O775      Tb1104   2.341       .  S
C777        O792   1.259       .  A
C777        O779   1.258       .  A
C777        C870   1.438       .  S
Tb778      O1152   2.368       .  S
Tb778      O1153   2.341   1_545  S
Tb778      O1136   2.356   1_545  S
Tb778       O794   2.324       .  S
Tb778       O789   2.324       .  S
Tb778       O782   2.357       .  S
Tb778       O799   2.369   1_545  S
O779       Tb783   2.355       .  S
O780        C791   1.259       .  A
O780      Tb1135   2.367       .  S
C781        O786   1.270       .  A
C781        O802   1.271       .  A
C781        C854   1.437       .  S
O782        C798   1.258       .  A
Tb783      O1132   2.367   1_545  S
Tb783       O787   2.325       .  S
Tb783       O792   2.368       .  S
Tb783       O786   2.339       .  S
Tb783      O1145   2.356   1_545  S
Tb783       O795   2.325       .  S
O784       C1142   1.258       .  A
O784      Tb1130   2.356       .  S
O785        C788   1.270   1_455  A
O787        C797   1.270       .  A
C788        O801   1.271       .  A
C788        C867   1.436       .  S
C790       O1136   1.258       .  A
C790        O799   1.259       .  A
C790       C1208   1.439       .  S
C791        O793   1.258       .  A
C791        C858   1.438       .  S
O793      Tb1135   2.356       .  S
O795        C796   1.270       .  A
C798       O1152   1.259       .  A
C798        C866   1.439       .  S
O800       C1150   1.259       .  A
O800      Tb1130   2.368       .  S
O801      Tb1130   2.341       .  S
C803        C805   1.530       .  S
C803        C807   1.530       .  S
C803        C806   1.531       .  S
C803       C1025   1.475   1_554  S
C804        C808   1.539       .  S
C804        C810   1.539       .  S
C804        C809   1.535       .  S
C804        C851   1.475       .  S
C805        C813   1.373       .  A
C805        C808   1.395       .  A
C806        C817   1.375       .  A
C806        C809   1.395       .  A
C807        C821   1.373       .  A
C807        C810   1.395       .  A
C808        C811   1.382       .  A
C809        C815   1.378       .  A
C810        C818   1.382       .  A
C811        N812   1.359       .  A
C811        H824   1.082       .  S
N812        C813   1.355       .  A
N812        C864   1.404       .  S
C813        H814   1.082       .  S
C815        N816   1.357       .  A
C815        H825   1.083       .  S
N816        C817   1.356       .  A
N816        C860   1.403       .  S
C817        H823   1.082       .  S
C818        N819   1.359       .  A
C818        H820   1.082       .  S
N819        C821   1.355       .  A
N819        C862   1.404       .  S
C821        H822   1.082       .  S
C826        C828   1.530       .  S
C826        C830   1.530       .  S
C826        C829   1.531       .  S
C826        C852   1.475       .  S
C827        C831   1.539       .  S
C827        C833   1.539       .  S
C827        C832   1.535       .  S
C827        C850   1.475       .  S
C828        C836   1.373       .  A
C828        C831   1.395       .  A
C829        C840   1.375       .  A
C829        C832   1.395       .  A
C830        C844   1.373       .  A
C830        C833   1.395       .  A
C831        C834   1.382       .  A
C832        C838   1.378       .  A
C833        C841   1.382       .  A
C834        N835   1.359       .  A
C834        H847   1.082       .  S
N835        C836   1.355       .  A
N835        C857   1.404       .  S
C836        H837   1.082       .  S
C838        N839   1.357       .  A
C838        H848   1.083       .  S
N839        C840   1.356       .  A
N839        C853   1.403       .  S
C840        H846   1.082       .  S
C841        N842   1.359       .  A
C841        H843   1.082       .  S
N842        C844   1.355       .  A
N842        C855   1.404       .  S
C844        H845   1.082       .  S
C849        C979   1.475       .  S
C849        C850   1.209       .  T
C851        C852   1.209       .  T
C853        C854   1.207       .  T
C855        C856   1.208       .  T
C856       C1142   1.439       .  S
C857        C858   1.208       .  T
C859        C860   1.207       .  T
C861       C1116   1.438       .  S
C861        C862   1.208       .  T
C863        C864   1.208       .  T
C865        C866   1.209       .  T
C867        C868   1.206       .  T
C869        C870   1.208       .  T
C871        C872   1.209       .  T
C873        C874   1.206       .  T
C875        C876   1.208       .  T
C876        N890   1.404       .  S
C877        C878   1.209       .  T
C879        C880   1.209       .  T
C881        C883   1.530       .  S
C881        C885   1.530       .  S
C881        C884   1.531       .  S
C881       C1055   1.475       .  S
C882        C886   1.539       .  S
C882        C888   1.540       .  S
C882        C887   1.535       .  S
C882       C1053   1.475       .  S
C883        C891   1.373       .  A
C884        C895   1.375       .  A
C885        C899   1.373       .  A
C886        C889   1.382       .  A
C887        C893   1.378       .  A
C888        C896   1.383       .  A
C889        N890   1.359       .  A
C889        H902   1.082       .  S
C891        H892   1.082       .  S
C893        H903   1.083       .  S
N894        C895   1.356       .  A
N894       C1050   1.402       .  S
C895        H901   1.082       .  S
C896        N897   1.359       .  A
C896        H898   1.082       .  S
N897       C1047   1.405       .  S
C899        H900   1.082       .  S
C904        C906   1.530       .  S
C904        C908   1.530       .  S
C904        C907   1.531       .  S
C904       C1054   1.475       .  S
C905        C909   1.539       .  S
C905        C911   1.540       .  S
C905        C910   1.535       .  S
C905       C1056   1.475       .  S
C906        C914   1.373       .  A
C906        C909   1.395       .  A
C907        C918   1.375       .  A
C907        C910   1.395       .  A
C908        C922   1.373       .  A
C908        C911   1.395       .  A
C909        C912   1.382       .  A
C910        C916   1.378       .  A
C911        C919   1.383       .  A
C912        N913   1.359       .  A
C912        H925   1.082       .  S
N913        C914   1.355       .  A
N913       C1045   1.404       .  S
C914        H915   1.082       .  S
C916        N917   1.357       .  A
C916        H926   1.083       .  S
N917        C918   1.356       .  A
N917       C1044   1.402       .  S
C918        H924   1.082       .  S
C919        N920   1.359       .  A
C919        H921   1.082       .  S
N920        C922   1.355       .  A
N920       C1041   1.405       .  S
C922        H923   1.082       .  S
C927        O929   1.258       .  A
C927       C1051   1.438       .  S
Tb928      O1126   2.368       .  S
Tb928      O1303   2.341   1_545  S
Tb928      O1286   2.356   1_545  S
Tb928       O939   2.324       .  S
Tb928       O932   2.357       .  S
Tb928       O949   2.369   1_545  S
O929       Tb933   2.355       .  S
O930        C941   1.259       .  A
O930      Tb1285   2.367       .  S
C931        O936   1.270       .  A
C931        O952   1.271       .  A
C931       C1035   1.437       .  S
Tb933      O1282   2.367   1_545  S
Tb933       O936   2.339       .  S
Tb933      O1295   2.356   1_545  S
Tb933       O945   2.325       .  S
O934       C1292   1.258       .  A
O934      Tb1280   2.356       .  S
O935        C938   1.270   1_455  A
O937        C947   1.270       .  A
C938        O951   1.271       .  A
C938       C1049   1.436       .  S
C940       O1286   1.258       .  A
C940        O949   1.259       .  A
C940       C1389   1.438       .  S
C941        O943   1.258       .  A
C941       C1039   1.438       .  S
O943      Tb1285   2.356       .  S
O945        C946   1.270       .  A
C946        C973   1.460       .  S
C947        C972   1.460       .  S
C948       O1302   1.259   1_554  A
C948       C1048   1.439   1_554  S
O950       C1300   1.259   1_556  A
O950      Tb1104   2.368   1_556  S
O951      Tb1280   2.341       .  S
C953        O968   1.259       .  A
C953        O955   1.258       .  A
C953       C1046   1.438       .  S
Tb954      O1328   2.368       .  S
Tb954      O1329   2.341   1_545  S
Tb954      O1312   2.356   1_545  S
Tb954       O970   2.324       .  S
Tb954       O965   2.324       .  S
Tb954       O958   2.357       .  S
Tb954       O975   2.369   1_545  S
O955       Tb959   2.355       .  S
O956        C967   1.259       .  A
O956      Tb1311   2.367       .  S
C957        O962   1.270       .  A
C957        O978   1.271       .  A
C957       C1030   1.437       .  S
O958        C974   1.258       .  A
Tb959      O1308   2.367   1_545  S
Tb959       O963   2.325       .  S
Tb959       O968   2.368       .  S
Tb959       O962   2.339       .  S
Tb959      O1321   2.356   1_545  S
Tb959       O971   2.325       .  S
O960       C1318   1.258       .  A
O960      Tb1306   2.356       .  S
O961        C964   1.270   1_455  A
O963        C973   1.270       .  A
C964        O977   1.271       .  A
C964       C1043   1.436       .  S
C966       O1312   1.258       .  A
C966        O975   1.259       .  A
C966       C1384   1.439       .  S
C967        O969   1.258       .  A
C967       C1034   1.438       .  S
O969      Tb1311   2.356       .  S
O971        C972   1.270       .  A
C974       O1328   1.259       .  A
C974       C1042   1.439       .  S
O976       C1326   1.259       .  A
O976      Tb1306   2.368       .  S
O977      Tb1306   2.341       .  S
C979        C981   1.530       .  S
C979        C983   1.530       .  S
C979        C982   1.531       .  S
C980        C984   1.539       .  S
C980        C986   1.539       .  S
C980        C985   1.535       .  S
C980       C1027   1.475       .  S
C981        C989   1.373       .  A
C981        C984   1.395       .  A
C982        C993   1.375       .  A
C982        C985   1.395       .  A
C983        C997   1.373       .  A
C983        C986   1.395       .  A
C984        C987   1.382       .  A
C985        C991   1.378       .  A
C986        C994   1.382       .  A
C987        N988   1.359       .  A
C987       H1000   1.083       .  S
N988        C989   1.355       .  A
N988       C1040   1.404       .  S
C989        H990   1.082       .  S
C991        N992   1.357       .  A
C991       H1001   1.083       .  S
N992        C993   1.356       .  A
N992       C1036   1.403       .  S
C993        H999   1.082       .  S
C994        N995   1.359       .  A
C994        H996   1.082       .  S
N995        C997   1.355       .  A
N995       C1038   1.404       .  S
C997        H998   1.082       .  S
C1002      C1004   1.530       .  S
C1002      C1006   1.530       .  S
C1002      C1005   1.531       .  S
C1002      C1028   1.475       .  S
C1003      C1007   1.539       .  S
C1003      C1009   1.539       .  S
C1003      C1008   1.535       .  S
C1003      C1026   1.475       .  S
C1004      C1012   1.373       .  A
C1004      C1007   1.395       .  A
C1005      C1016   1.375       .  A
C1005      C1008   1.395       .  A
C1006      C1020   1.373       .  A
C1006      C1009   1.395       .  A
C1007      C1010   1.382       .  A
C1008      C1014   1.378       .  A
C1009      C1017   1.382       .  A
C1010      N1011   1.359       .  A
C1010      H1023   1.082       .  S
N1011      C1012   1.355       .  A
N1011      C1033   1.404       .  S
C1012      H1013   1.082       .  S
C1014      N1015   1.357       .  A
C1014      H1024   1.083       .  S
N1015      C1016   1.356       .  A
N1015      C1029   1.403       .  S
C1016      H1022   1.082       .  S
C1017      N1018   1.359       .  A
C1017      H1019   1.082       .  S
N1018      C1020   1.355       .  A
N1018      C1031   1.404       .  S
C1020      H1021   1.082       .  S
C1025      C1026   1.209       .  T
C1027      C1028   1.209       .  T
C1029      C1030   1.207       .  T
C1031      C1032   1.208       .  T
C1032      C1318   1.439       .  S
C1033      C1034   1.208       .  T
C1035      C1036   1.207       .  T
C1037      C1292   1.438       .  S
C1037      C1038   1.208       .  T
C1039      C1040   1.208       .  T
C1041      C1042   1.209       .  T
C1043      C1044   1.206       .  T
C1045      C1046   1.208       .  T
C1047      C1048   1.209       .  T
C1049      C1050   1.206       .  T
C1051      C1052   1.208       .  T
C1053      C1054   1.209       .  T
C1055      C1056   1.209       .  T
C1057      C1059   1.530       .  S
C1057      C1061   1.530       .  S
C1057      C1060   1.531       .  S
C1057      C1231   1.475       .  S
C1058      C1062   1.539       .  S
C1058      C1064   1.540       .  S
C1058      C1063   1.535       .  S
C1058      C1229   1.475       .  S
C1059      C1067   1.373       .  A
C1059      C1238   1.395   1_554  A
C1060      C1071   1.375       .  A
C1060      C1239   1.395   1_554  A
C1061      C1075   1.373       .  A
C1061      C1240   1.395   1_554  A
C1062      C1235   1.395       .  A
C1062      C1065   1.382       .  A
C1063      C1236   1.395       .  A
C1063      C1069   1.378       .  A
C1064      C1237   1.395       .  A
C1064      C1072   1.383       .  A
C1065      N1066   1.359       .  A
C1065      H1078   1.082       .  S
N1066      C1243   1.355       .  A
N1066      C1404   1.404       .  S
C1067      N1242   1.355   1_554  A
C1067      H1068   1.082       .  S
C1069      N1246   1.357       .  A
C1069      H1079   1.083       .  S
N1070      C1245   1.357       .  A
N1070      C1071   1.356   1_556  A
N1070      C1226   1.402   1_556  S
C1071      H1077   1.082       .  S
C1072      N1073   1.359       .  A
C1072      H1074   1.082       .  S
N1073      C1251   1.355       .  A
N1073      C1223   1.405       .  S
C1075      N1249   1.355   1_554  A
C1075      H1076   1.082       .  S
C1080      C1082   1.530       .  S
C1080      C1084   1.530       .  S
C1080      C1083   1.531       .  S
C1080      C1230   1.475       .  S
C1081      C1085   1.539       .  S
C1081      C1087   1.540       .  S
C1081      C1086   1.535       .  S
C1081      C1232   1.475       .  S
C1082      C1090   1.373       .  A
C1082      C1085   1.395       .  A
C1083      C1094   1.375       .  A
C1083      C1086   1.395       .  A
C1084      C1098   1.373       .  A
C1084      C1087   1.395       .  A
C1085      C1088   1.382       .  A
C1086      C1092   1.378       .  A
C1087      C1095   1.383       .  A
C1088      N1089   1.359       .  A
C1088      H1101   1.082       .  S
N1089      C1090   1.355       .  A
N1089      C1221   1.404       .  S
C1090      H1091   1.082       .  S
C1092      N1093   1.357       .  A
C1092      H1102   1.083       .  S
N1093      C1094   1.356       .  A
N1093      C1220   1.402       .  S
C1094      H1100   1.082       .  S
C1095      N1096   1.359       .  A
C1095      H1097   1.082       .  S
N1096      C1098   1.355       .  A
N1096      C1217   1.405       .  S
C1098      H1099   1.082       .  S
C1103      O1294   1.259   1_554  A
C1103      O1105   1.258       .  A
C1103      C1227   1.438   1_554  S
Tb1104     O1296   2.324   1_554  S
Tb1104     O1115   2.324       .  S
Tb1104     O1108   2.357       .  S
Tb1104     O1125   2.369       .  S
O1105     Tb1109   2.355       .  S
O1106      C1117   1.259       .  A
C1107      O1112   1.270       .  A
C1107      O1128   1.271       .  A
C1107      C1211   1.437       .  S
O1108      C1300   1.258       .  A
Tb1109     O1289   2.325   1_554  S
Tb1109     O1294   2.368   1_554  S
Tb1109     O1112   2.339       .  S
Tb1109     O1121   2.325       .  S
O1111      C1114   1.270   1_455  A
O1113      C1123   1.270       .  A
O1113     Tb1285   2.325       .  S
C1114      O1127   1.271       .  A
C1114      C1225   1.436       .  S
C1116      O1125   1.259       .  A
C1117      O1119   1.258       .  A
C1117      C1215   1.438       .  S
O1118      C1279   1.259       .  A
O1118     Tb1285   2.368       .  S
O1120     Tb1280   2.324       .  S
O1121      C1122   1.270       .  A
C1122      C1149   1.460       .  S
C1123      C1148   1.460       .  S
C1124      O1284   1.258       .  A
C1124      C1224   1.439       .  S
C1129      O1144   1.259       .  A
C1129      O1131   1.258       .  A
C1129      C1222   1.438       .  S
Tb1130     O1146   2.324       .  S
Tb1130     O1141   2.324       .  S
Tb1130     O1134   2.357       .  S
Tb1130     O1151   2.369       .  S
O1131     Tb1135   2.355       .  S
O1132      C1143   1.259       .  A
C1133      O1138   1.270       .  A
C1133      O1154   1.271       .  A
C1133      C1206   1.437       .  S
O1134      C1150   1.258       .  A
Tb1135     O1139   2.325       .  S
Tb1135     O1144   2.368       .  S
Tb1135     O1138   2.339       .  S
Tb1135     O1147   2.325       .  S
O1137      C1140   1.270   1_455  A
O1139      C1149   1.270       .  A
C1140      O1153   1.271       .  A
C1140      C1219   1.436       .  S
C1142      O1151   1.259       .  A
C1143      O1145   1.258       .  A
C1143      C1210   1.438       .  S
O1147      C1148   1.270       .  A
C1150      C1218   1.439       .  S
C1155      C1157   1.530       .  S
C1155      C1159   1.530       .  S
C1155      C1158   1.531       .  S
C1155      C1377   1.475   1_554  S
C1156      C1160   1.539       .  S
C1156      C1162   1.539       .  S
C1156      C1161   1.535       .  S
C1156      C1203   1.475       .  S
C1157      C1165   1.373       .  A
C1157      C1160   1.395       .  A
C1158      C1169   1.375       .  A
C1158      C1161   1.395       .  A
C1159      C1173   1.373       .  A
C1159      C1162   1.395       .  A
C1160      C1163   1.382       .  A
C1161      C1167   1.378       .  A
C1162      C1170   1.382       .  A
C1163      N1164   1.359       .  A
C1163      H1176   1.082       .  S
N1164      C1165   1.355       .  A
N1164      C1216   1.404       .  S
C1165      H1166   1.082       .  S
C1167      N1168   1.357       .  A
C1167      H1177   1.083       .  S
N1168      C1169   1.356       .  A
N1168      C1212   1.403       .  S
C1169      H1175   1.082       .  S
C1170      N1171   1.359       .  A
C1170      H1172   1.082       .  S
N1171      C1173   1.355       .  A
N1171      C1214   1.404       .  S
C1173      H1174   1.082       .  S
C1178      C1180   1.530       .  S
C1178      C1182   1.530       .  S
C1178      C1181   1.531       .  S
C1178      C1204   1.475       .  S
C1179      C1183   1.539       .  S
C1179      C1185   1.539       .  S
C1179      C1184   1.535       .  S
C1179      C1202   1.475       .  S
C1180      C1188   1.373       .  A
C1180      C1183   1.395       .  A
C1181      C1192   1.375       .  A
C1181      C1184   1.395       .  A
C1182      C1196   1.373       .  A
C1182      C1185   1.395       .  A
C1183      C1186   1.382       .  A
C1184      C1190   1.378       .  A
C1185      C1193   1.382       .  A
C1186      N1187   1.359       .  A
C1186      H1199   1.082       .  S
N1187      C1188   1.355       .  A
N1187      C1209   1.404       .  S
C1188      H1189   1.082       .  S
C1190      N1191   1.357       .  A
C1190      H1200   1.083       .  S
N1191      C1192   1.356       .  A
N1191      C1205   1.403       .  S
C1192      H1198   1.082       .  S
C1193      N1194   1.359       .  A
C1193      H1195   1.082       .  S
N1194      C1196   1.355       .  A
N1194      C1207   1.404       .  S
C1196      H1197   1.082       .  S
C1201      C1331   1.475       .  S
C1201      C1202   1.209       .  T
C1203      C1204   1.209       .  T
C1205      C1206   1.207       .  T
C1207      C1208   1.208       .  T
C1209      C1210   1.208       .  T
C1211      C1212   1.207       .  T
C1213      C1214   1.208       .  T
C1215      C1216   1.208       .  T
C1217      C1218   1.209       .  T
C1219      C1220   1.206       .  T
C1221      C1222   1.208       .  T
C1223      C1224   1.209       .  T
C1225      C1226   1.206       .  T
C1227      C1228   1.208       .  T
C1228      N1242   1.404       .  S
C1229      C1230   1.209       .  T
C1231      C1232   1.209       .  T
C1233      C1235   1.530       .  S
C1233      C1237   1.530       .  S
C1233      C1236   1.531       .  S
C1233      C1407   1.475       .  S
C1234      C1238   1.539       .  S
C1234      C1240   1.540       .  S
C1234      C1239   1.535       .  S
C1234      C1405   1.475       .  S
C1235      C1243   1.373       .  A
C1236      C1247   1.375       .  A
C1237      C1251   1.373       .  A
C1238      C1241   1.382       .  A
C1239      C1245   1.378       .  A
C1240      C1248   1.383       .  A
C1241      N1242   1.359       .  A
C1241      H1254   1.082       .  S
C1243      H1244   1.082       .  S
C1245      H1255   1.083       .  S
N1246      C1247   1.356       .  A
N1246      C1402   1.402       .  S
C1247      H1253   1.082       .  S
C1248      N1249   1.359       .  A
C1248      H1250   1.082       .  S
N1249      C1399   1.405       .  S
C1251      H1252   1.082       .  S
C1256      C1258   1.530       .  S
C1256      C1260   1.530       .  S
C1256      C1259   1.531       .  S
C1256      C1406   1.475       .  S
C1257      C1261   1.539       .  S
C1257      C1263   1.540       .  S
C1257      C1262   1.535       .  S
C1257      C1408   1.475       .  S
C1258      C1266   1.373       .  A
C1258      C1261   1.395       .  A
C1259      C1270   1.375       .  A
C1259      C1262   1.395       .  A
C1260      C1274   1.373       .  A
C1260      C1263   1.395       .  A
C1261      C1264   1.382       .  A
C1262      C1268   1.378       .  A
C1263      C1271   1.383       .  A
C1264      N1265   1.359       .  A
C1264      H1277   1.082       .  S
N1265      C1266   1.355       .  A
N1265      C1397   1.404       .  S
C1266      H1267   1.082       .  S
C1268      N1269   1.357       .  A
C1268      H1278   1.083       .  S
N1269      C1270   1.356       .  A
N1269      C1396   1.402       .  S
C1270      H1276   1.082       .  S
C1271      N1272   1.359       .  A
C1271      H1273   1.082       .  S
N1272      C1274   1.355       .  A
N1272      C1393   1.405       .  S
C1274      H1275   1.082       .  S
C1279      O1281   1.258       .  A
C1279      C1403   1.438       .  S
Tb1280     O1291   2.324       .  S
Tb1280     O1284   2.357       .  S
Tb1280     O1301   2.369       .  S
O1281     Tb1285   2.355       .  S
O1282      C1293   1.259       .  A
C1283      O1288   1.270       .  A
C1283      O1304   1.271       .  A
C1283      C1387   1.437       .  S
Tb1285     O1288   2.339       .  S
Tb1285     O1297   2.325       .  S
O1287      C1290   1.270   1_455  A
O1289      C1299   1.270       .  A
C1290      O1303   1.271       .  A
C1290      C1401   1.436       .  S
C1292      O1301   1.259       .  A
C1293      O1295   1.258       .  A
C1293      C1391   1.438       .  S
O1297      C1298   1.270       .  A
C1298      C1325   1.460       .  S
C1299      C1324   1.460       .  S
C1300      C1400   1.439   1_554  S
C1305      O1320   1.259       .  A
C1305      O1307   1.258       .  A
C1305      C1398   1.438       .  S
Tb1306     O1322   2.324       .  S
Tb1306     O1317   2.324       .  S
Tb1306     O1310   2.357       .  S
Tb1306     O1327   2.369       .  S
O1307     Tb1311   2.355       .  S
O1308      C1319   1.259       .  A
C1309      O1314   1.270       .  A
C1309      O1330   1.271       .  A
C1309      C1382   1.437       .  S
O1310      C1326   1.258       .  A
Tb1311     O1315   2.325       .  S
Tb1311     O1320   2.368       .  S
Tb1311     O1314   2.339       .  S
Tb1311     O1323   2.325       .  S
O1313      C1316   1.270   1_455  A
O1315      C1325   1.270       .  A
C1316      O1329   1.271       .  A
C1316      C1395   1.436       .  S
C1318      O1327   1.259       .  A
C1319      O1321   1.258       .  A
C1319      C1386   1.438       .  S
O1323      C1324   1.270       .  A
C1326      C1394   1.439       .  S
C1331      C1333   1.530       .  S
C1331      C1335   1.530       .  S
C1331      C1334   1.531       .  S
C1332      C1336   1.539       .  S
C1332      C1338   1.539       .  S
C1332      C1337   1.535       .  S
C1332      C1379   1.475       .  S
C1333      C1341   1.373       .  A
C1333      C1336   1.395       .  A
C1334      C1345   1.375       .  A
C1334      C1337   1.395       .  A
C1335      C1349   1.373       .  A
C1335      C1338   1.395       .  A
C1336      C1339   1.382       .  A
C1337      C1343   1.378       .  A
C1338      C1346   1.382       .  A
C1339      N1340   1.359       .  A
C1339      H1352   1.083       .  S
N1340      C1341   1.355       .  A
N1340      C1392   1.404       .  S
C1341      H1342   1.082       .  S
C1343      N1344   1.357       .  A
C1343      H1353   1.083       .  S
N1344      C1345   1.356       .  A
N1344      C1388   1.403       .  S
C1345      H1351   1.082       .  S
C1346      N1347   1.359       .  A
C1346      H1348   1.082       .  S
N1347      C1349   1.355       .  A
N1347      C1390   1.404       .  S
C1349      H1350   1.082       .  S
C1354      C1356   1.530       .  S
C1354      C1358   1.530       .  S
C1354      C1357   1.531       .  S
C1354      C1380   1.475       .  S
C1355      C1359   1.539       .  S
C1355      C1361   1.539       .  S
C1355      C1360   1.535       .  S
C1355      C1378   1.475       .  S
C1356      C1364   1.373       .  A
C1356      C1359   1.395       .  A
C1357      C1368   1.375       .  A
C1357      C1360   1.395       .  A
C1358      C1372   1.373       .  A
C1358      C1361   1.395       .  A
C1359      C1362   1.382       .  A
C1360      C1366   1.378       .  A
C1361      C1369   1.382       .  A
C1362      N1363   1.359       .  A
C1362      H1375   1.082       .  S
N1363      C1364   1.355       .  A
N1363      C1385   1.404       .  S
C1364      H1365   1.082       .  S
C1366      N1367   1.357       .  A
C1366      H1376   1.083       .  S
N1367      C1368   1.356       .  A
N1367      C1381   1.403       .  S
C1368      H1374   1.082       .  S
C1369      N1370   1.359       .  A
C1369      H1371   1.082       .  S
N1370      C1372   1.355       .  A
N1370      C1383   1.404       .  S
C1372      H1373   1.082       .  S
C1377      C1378   1.209       .  T
C1379      C1380   1.209       .  T
C1381      C1382   1.207       .  T
C1383      C1384   1.208       .  T
C1385      C1386   1.208       .  T
C1387      C1388   1.207       .  T
C1389      C1390   1.208       .  T
C1391      C1392   1.208       .  T
C1393      C1394   1.209       .  T
C1395      C1396   1.206       .  T
C1397      C1398   1.208       .  T
C1399      C1400   1.209       .  T
C1401      C1402   1.206       .  T
C1403      C1404   1.208       .  T
C1405      C1406   1.209       .  T
C1407      C1408   1.209       .  T
