geometry optimzed in LAMMPS
_audit_creation_date              2020-11-30 
_audit_creation_method            'lammps2cif' 
_symmetry_space_group_name_H-M    'P1' 
_symmetry_Int_Tables_number       1 
_symmetry_cell_setting            triclinic 
loop_ 
_symmetry_equiv_pos_as_xyz 
  x,y,z 
_cell_length_a                    42.01212489 
_cell_length_b                    42.22118697822271 
_cell_length_c                    42.08703380932634 
_cell_angle_alpha                 89.99686758997939 
_cell_angle_beta                  89.79765569485657 
_cell_angle_gamma                 89.76983878521538 
loop_ 
_atom_site_label 
_atom_site_type_symbol 
_atom_site_fract_x 
_atom_site_fract_y 
_atom_site_fract_z 
_atom_site_charge 
O1          O  0.78417136  0.71270394  0.82943327    -0.88900
C2          C  0.78464237  0.74266095  0.64693506     1.11100
O3          O  0.73840211  0.73505142  0.77644820    -1.36700
O4          O  0.83451930  0.76495454  0.70649610    -0.90400
O5          O  0.73476487  0.71978738  0.84718522    -0.91000
O6          O  0.74756524  0.79880407  0.81788700    -0.79900
O7          O  0.80691887  0.73392976  0.76403444    -1.02000
C8          C  0.76058574  0.84659454  0.73964195     1.21200
O9          O  0.70866710  0.78720359  0.74979563    -1.36900
Mn10       Mn  0.71775117  0.74064366  0.72945270     1.82100
O11         O  0.76942305  0.83061342  0.76321331    -0.78900
O12         O  0.81393970  0.81282515  0.69876868    -0.88300
C13         C  0.70873081  0.77201786  0.66673592     1.12300
C14         C  0.83785447  0.79446633  0.70227370     1.07000
O15         O  0.67070986  0.72175582  0.73680869    -0.79900
O16         O  0.76360636  0.76415377  0.72295292    -1.33600
O17         O  0.66981022  0.74366143  0.78148716    -0.99100
C18         C  0.68401878  0.86154479  0.77440319     1.05700
Mn19       Mn  0.76593806  0.80112337  0.68891150     1.48600
O20         O  0.68094846  0.83849187  0.79379532    -0.88300
Mn21       Mn  0.70278433  0.72916280  0.81089290     1.49600
O22         O  0.74752963  0.66465293  0.79238245    -0.92200
C23         C  0.82048089  0.75453807  0.77877633     1.18900
C24         C  0.71832964  0.65855594  0.79702486     1.11000
Mn25       Mn  0.75593129  0.78295174  0.77026681     1.81000
O26         O  0.72083050  0.79343983  0.68186128    -0.97300
Mn27       Mn  0.77647489  0.70276446  0.78107799     1.49300
C28         C  0.76426969  0.71631742  0.85211005     1.07500
Mn29       Mn  0.70214749  0.82146016  0.71395730     1.49900
C30         C  0.63199321  0.80136516  0.72438752     1.10400
O31         O  0.70383164  0.77494223  0.81777359    -1.03100
O32         O  0.77969927  0.77187949  0.65154728    -0.92800
C33         C  0.72316071  0.79012905  0.83280789     1.21700
O34         O  0.74731562  0.83245082  0.71815894    -1.03500
O35         O  0.79026001  0.72350388  0.66960498    -0.90900
O36         O  0.65471381  0.80747268  0.70521015    -0.90500
O37         O  0.69743571  0.68020708  0.80133572    -0.90500
Mn38       Mn  0.80058704  0.73138403  0.71776441     1.47900
O39         O  0.70147939  0.74743245  0.68196446    -0.79000
C40         C  0.65521916  0.72924663  0.76140001     1.14700
O41         O  0.80383457  0.77795296  0.78704445    -0.77700
O42         O  0.72782983  0.69340452  0.71291241    -0.77400
Mn43       Mn  0.67377321  0.78956507  0.78545422     1.51100
O44         O  0.68738500  0.85721854  0.74474102    -0.89700
O45         O  0.77377447  0.69538249  0.73407099    -0.97200
O46         O  0.63651844  0.79876445  0.75408206    -0.92300
C47         C  0.75378975  0.67988524  0.71942076     1.12500
O48         O  0.83587099  0.68023198  0.20790005    -0.88900
C49         C  0.65272491  0.70231991  0.20067359     1.11100
O50         O  0.78171133  0.70620522  0.25075403    -1.36700
O51         O  0.71448130  0.72057395  0.14975317    -0.90400
O52         O  0.85373925  0.69062791  0.25651732    -0.91000
O53         O  0.82147920  0.76937667  0.23545525    -0.79900
O54         O  0.77060527  0.69746104  0.18349665    -1.02000
C55         C  0.74059614  0.81445988  0.21516507     1.21200
O56         O  0.75359690  0.76088399  0.27492875    -1.36900
Mn57       Mn  0.73430766  0.71360708  0.27046339     1.82100
O58         O  0.76607148  0.79933539  0.20987056    -0.78900
O59         O  0.70483662  0.76926788  0.16726056    -0.88300
C60         C  0.67057127  0.74499286  0.27839969     1.12300
C61         C  0.71105184  0.74999769  0.14491430     1.07000
O62         O  0.74116360  0.69930932  0.31838201    -0.79900
O63         O  0.72771832  0.73054712  0.22238512    -1.33600
O64         O  0.78624739  0.72059282  0.31835972    -0.99100
C65         C  0.77705335  0.83758925  0.29422064     1.05700
Mn66       Mn  0.69208495  0.76449543  0.21571500     1.48600
O67         O  0.79670246  0.81496701  0.29973760    -0.88300
Mn68       Mn  0.81617408  0.70330352  0.28697379     1.49600
O69         O  0.79886617  0.63468668  0.24905455    -0.92200
C70         C  0.78438366  0.71701533  0.16752404     1.18900
C71         C  0.80185948  0.63106263  0.27879506     1.11000
Mn72       Mn  0.77429962  0.75228842  0.22832468     1.81000
O73         O  0.68414487  0.76495175  0.26246593    -0.97300
Mn74       Mn  0.78700049  0.66988250  0.21671452     1.49300
C75         C  0.85868300  0.68570010  0.22712695     1.07500
Mn76       Mn  0.71674730  0.79536175  0.27792995     1.49900
C77         C  0.72770121  0.78434208  0.34990092     1.10400
O78         O  0.82270197  0.74924046  0.28150315    -1.03100
O79         O  0.65704364  0.73157243  0.20557059    -0.92800
C80         C  0.83696636  0.76271331  0.26017046     1.21700
O81         O  0.71942239  0.80091805  0.23040445    -1.03500
O82         O  0.67605865  0.68326754  0.19689520    -0.90900
O83         O  0.70831373  0.78861796  0.32699605    -0.90500
O84         O  0.80628327  0.65468341  0.29730364    -0.90500
Mn85       Mn  0.72500239  0.69247015  0.18916647     1.47900
O86         O  0.68685815  0.72143470  0.28694250    -0.79000
C87         C  0.76563007  0.70700652  0.33343363     1.14700
O88         O  0.79114174  0.74270944  0.18110121    -0.77700
O89         O  0.71884094  0.66658938  0.26570328    -0.77400
Mn90       Mn  0.78918520  0.76609312  0.30984026     1.51100
O91         O  0.74809220  0.83241068  0.28754822    -0.89700
O92         O  0.74096141  0.66187951  0.22066412    -0.97200
O93         O  0.75677617  0.77776255  0.34528864    -0.92300
C94         C  0.72673819  0.64939237  0.24270720     1.12500
O95         O  0.68047492  0.21225879  0.84810392    -0.88900
C96         C  0.70176335  0.21942745  0.66526076     1.11100
O97         O  0.70241852  0.25919635  0.79761938    -1.36700
O98         O  0.72486475  0.16532519  0.72171632    -0.90400
O99         O  0.68752561  0.25987692  0.86941623    -0.91000
O100        O  0.76641133  0.24494083  0.83686957    -0.79900
O101        O  0.69757227  0.19088600  0.78197509    -1.02000
C102        C  0.81203064  0.23244850  0.75582822     1.21200
O103        O  0.75552164  0.28752257  0.77170377    -1.36900
Mn104      Mn  0.70820157  0.28162286  0.75134794     1.82100
O105        O  0.79687644  0.22371149  0.78013305    -0.78900
O106        O  0.77289638  0.18485868  0.71143211    -0.88300
C107        C  0.73941515  0.29313360  0.68893828     1.12300
C108        C  0.75428929  0.16149703  0.71575322     1.07000
O109        O  0.69161055  0.32832765  0.76133203    -0.79900
O110        O  0.72877667  0.23515245  0.74205829    -1.33600
O111        O  0.71350239  0.32668837  0.80626391    -0.99100
C112        C  0.83182218  0.30628173  0.79691351     1.05700
Mn113      Mn  0.76394055  0.23363868  0.70632197     1.48600
O114        O  0.80898454  0.31136821  0.81647183    -0.88300
Mn115      Mn  0.69795757  0.29296570  0.83421148     1.49600
O116        O  0.63086774  0.25217055  0.81477912    -0.92200
C117        C  0.71908100  0.17577691  0.79499773     1.18900
C118        C  0.62575009  0.28126029  0.81964645     1.11000
Mn119      Mn  0.74949327  0.23953138  0.78935117     1.81000
O120        O  0.75948730  0.27915005  0.70403976    -0.97300
Mn121      Mn  0.66814073  0.22314031  0.80093717     1.49300
C122        C  0.68552685  0.22997887  0.87198721     1.07500
Mn123      Mn  0.78990610  0.29351781  0.73583399     1.49900
C124        C  0.77474139  0.36456434  0.74994891     1.10400
O125        O  0.74446427  0.28992301  0.84133838    -1.03100
O126        O  0.73126151  0.22512213  0.66928783    -0.92800
C127        C  0.75974210  0.26865827  0.85389426     1.21700
O128        O  0.79731789  0.24758957  0.73610452    -1.03500
O129        O  0.68350337  0.21262146  0.68841190    -0.90900
O130        O  0.78019431  0.34235406  0.73008342    -0.90500
O131        O  0.64850440  0.30079196  0.82453177    -0.90500
Mn132      Mn  0.69311919  0.20078033  0.73572865     1.47900
O133        O  0.71445025  0.30015497  0.70394490    -0.79000
C134        C  0.69913318  0.34225066  0.78660039     1.14700
O135        O  0.74315828  0.19112511  0.80359388    -0.77700
O136        O  0.66057611  0.27468956  0.73556956    -0.77400
Mn137      Mn  0.75963945  0.32067164  0.80927847     1.51100
O138        O  0.82703385  0.30292329  0.76734190    -0.89700
O139        O  0.66035215  0.22873060  0.75502336    -0.97200
O140        O  0.76988498  0.35914893  0.77930014    -0.92300
C141        C  0.64539054  0.24993705  0.74236173     1.12500
O142        O  0.18881141  0.31597122  0.83863771    -0.88900
C143        C  0.17503736  0.28612580  0.65852803     1.11100
O144        O  0.22941171  0.28727418  0.78497235    -1.36700
O145        O  0.12818245  0.26412683  0.72223398    -0.90400
O146        O  0.23806489  0.30485319  0.85443159    -0.91000
O147        O  0.21740647  0.22431536  0.82693892    -0.79900
O148        O  0.16102587  0.29352227  0.77687957    -1.02000
C149        C  0.19945740  0.17858025  0.74614393     1.21200
O150        O  0.25469546  0.23423383  0.75682984    -1.36900
Mn151      Mn  0.24780733  0.28117664  0.73712125     1.82100
O152        O  0.19236426  0.19350526  0.77118562    -0.78900
O153        O  0.14658441  0.21656540  0.70843859    -0.88300
C154        C  0.25444693  0.25114919  0.67195697     1.12300
C155        C  0.12355115  0.23520656  0.71559404     1.07000
O156        O  0.29589445  0.29668216  0.74344504    -0.79900
O157        O  0.20040552  0.26096397  0.73208850    -1.33600
O158        O  0.29788029  0.27363239  0.78788283    -0.99100
C159        C  0.27630197  0.15820981  0.77921763     1.05700
Mn160      Mn  0.19499156  0.22556299  0.69655723     1.48600
O161        O  0.27977573  0.17985290  0.80017115    -0.88300
Mn162      Mn  0.26704597  0.29081068  0.81790253     1.49600
O163        O  0.22722264  0.35881127  0.79785731    -0.92200
C164        C  0.14683024  0.27395120  0.79257293     1.18900
C165        C  0.25711043  0.36202485  0.80088761     1.11000
Mn166      Mn  0.20856565  0.24068073  0.77905239     1.81000
O167        O  0.24082179  0.22947251  0.68585047    -0.97300
Mn168      Mn  0.19445840  0.32291928  0.78978605     1.49300
C169        C  0.20952539  0.31244046  0.86028537     1.07500
Mn170      Mn  0.25842617  0.20105114  0.71936929     1.49900
C171        C  0.32968431  0.21473888  0.73035045     1.10400
O172        O  0.26288860  0.24525359  0.82763874    -1.03100
O173        O  0.18079112  0.25677957  0.66123398    -0.92800
C174        C  0.24169423  0.23208940  0.84272419     1.21700
O175        O  0.21274884  0.19339572  0.72500859    -1.03500
O176        O  0.17100666  0.30457681  0.68208500    -0.90900
O177        O  0.30704968  0.21226778  0.71026583    -0.90500
O178        O  0.27562092  0.33852161  0.80582634    -0.90500
Mn179      Mn  0.16488016  0.29620718  0.73072752     1.47900
O180        O  0.26273316  0.27433465  0.68885264    -0.79000
C181        C  0.31215305  0.28753631  0.76692580     1.14700
O182        O  0.16165458  0.24861172  0.79830651    -0.77700
O183        O  0.23950013  0.32883188  0.72061151    -0.77400
Mn184      Mn  0.28984398  0.22841806  0.79240650     1.51100
O185        O  0.27114714  0.16467508  0.75026664    -0.89700
O186        O  0.19532408  0.32842859  0.74397410    -0.97200
O187        O  0.32485232  0.21650961  0.75994568    -0.92300
C188        C  0.21442838  0.34341558  0.72834944     1.12500
O189        O  0.28886928  0.80411344  0.82711856    -0.88900
C190        C  0.25582103  0.80223687  0.64550265     1.11100
O191        O  0.26172170  0.75886254  0.77567917    -1.36700
O192        O  0.23844712  0.85662984  0.70508922    -0.90400
O193        O  0.27973367  0.75575959  0.84598757    -0.91000
O194        O  0.19921386  0.77228152  0.81705829    -0.79900
O195        O  0.26666388  0.82697286  0.76215191    -1.02000
C196        C  0.14993067  0.78780883  0.74030778     1.21200
O197        O  0.20732728  0.73171605  0.75073355    -1.36900
Mn198      Mn  0.25383438  0.73790901  0.72927781     1.82100
O199        O  0.16616663  0.79589042  0.76403031    -0.78900
O200        O  0.18923561  0.83849384  0.70020815    -0.88300
C201        C  0.22083902  0.72951873  0.66729717     1.12300
C202        C  0.20869889  0.86125498  0.70457552     1.07000
O203        O  0.27097465  0.69075533  0.73677015    -0.79900
O204        O  0.23324889  0.78499294  0.72215087    -1.33600
O205        O  0.25074672  0.69041262  0.78245156    -0.99100
C206        C  0.13289122  0.71113744  0.77954914     1.05700
Mn207      Mn  0.19674699  0.78994760  0.68851043     1.48600
O208        O  0.15671346  0.70655302  0.79757457    -0.88300
Mn209      Mn  0.26740962  0.72354894  0.81057959     1.49600
O210        O  0.33329927  0.76378480  0.78870610    -0.92200
C211        C  0.24666578  0.84192878  0.77692488     1.18900
C212        C  0.33878840  0.73482964  0.79404915     1.11000
Mn213      Mn  0.21429478  0.77919153  0.76980691     1.81000
O214        O  0.19943261  0.74336837  0.68135779    -0.97300
Mn215      Mn  0.29635739  0.79464882  0.77867154     1.49300
C216        C  0.28501899  0.78503649  0.85023334     1.07500
Mn217      Mn  0.17142838  0.72659179  0.71609290     1.49900
C218        C  0.18557891  0.65548130  0.72671528     1.10400
O219        O  0.22150687  0.72715675  0.81851976    -1.03100
O220        O  0.22615883  0.80120232  0.65051641    -0.92800
C221        C  0.20737673  0.74822099  0.83257103     1.21700
O222        O  0.16408408  0.77347541  0.71908054    -1.03500
O223        O  0.27557931  0.80737444  0.66775553    -0.90900
O224        O  0.18008204  0.67831965  0.70774939    -0.90500
O225        O  0.31634252  0.71524930  0.79987475    -0.90500
Mn226      Mn  0.26857420  0.81941159  0.71588681     1.47900
O227        O  0.24477457  0.72115358  0.68312823    -0.79000
C228        C  0.26437712  0.67571935  0.76169933     1.14700
O229        O  0.22235008  0.82682474  0.78558238    -0.77700
O230        O  0.30109158  0.74391463  0.71111028    -0.77400
Mn231      Mn  0.20487097  0.69718890  0.78701848     1.51100
O232        O  0.13607299  0.71567853  0.74980957    -0.89700
O233        O  0.30163443  0.78951006  0.73184470    -0.97200
O234        O  0.19239577  0.66015861  0.75579423    -0.92300
C235        C  0.31638999  0.76848070  0.71768109     1.12500
O236        O  0.66415685  0.17665620  0.31047977    -0.88900
C237        C  0.84116875  0.20984650  0.32651260     1.11100
O238        O  0.71650504  0.20353582  0.26932109    -1.36700
O239        O  0.77723450  0.22924103  0.36999338    -0.90400
O240        O  0.64557775  0.18533884  0.26185238    -0.91000
O241        O  0.67305448  0.26588847  0.28111594    -0.79900
O242        O  0.72427679  0.19831597  0.33773966    -1.02000
C243        C  0.75098571  0.31482925  0.29660233     1.21200
O244        O  0.74332740  0.25718321  0.24389197    -1.36900
Mn245      Mn  0.76433646  0.21088857  0.25081447     1.82100
O246        O  0.72730718  0.29851592  0.30508791    -0.78900
O247        O  0.78562435  0.27785686  0.35134750    -0.88300
C248        C  0.82902086  0.24250313  0.24635578     1.12300
C249        C  0.77944987  0.25882389  0.37421601     1.07000
O250        O  0.75870298  0.19497935  0.20226500    -0.79900
O251        O  0.76807506  0.23162090  0.29807207    -1.33600
O252        O  0.71241099  0.21638674  0.19999522    -0.99100
C253        C  0.72058915  0.33225050  0.22144911     1.05700
Mn254      Mn  0.80121529  0.26875762  0.30422732     1.48600
O255        O  0.69931879  0.31078857  0.22144733    -0.88300
Mn256      Mn  0.68261260  0.19826892  0.23257369     1.49600
O257        O  0.70508570  0.13211358  0.27250482    -0.92200
C258        C  0.70766580  0.21761373  0.35144282     1.18900
C259        C  0.70201522  0.12772290  0.24297397     1.11000
Mn260      Mn  0.72107571  0.25069936  0.28982198     1.81000
O261        O  0.81349858  0.26357160  0.25922890    -0.97300
Mn262      Mn  0.71259128  0.16843744  0.30460969     1.49300
C263        C  0.64145508  0.18154118  0.29130082     1.07500
Mn264      Mn  0.78029729  0.29053113  0.23939718     1.49900
C265        C  0.77002511  0.27426292  0.16960562     1.10400
O266        O  0.67285231  0.24425591  0.23603864    -1.03100
O267        O  0.83669801  0.23904824  0.32102257    -0.92800
C268        C  0.65743775  0.25727261  0.25713865     1.21700
O269        O  0.77338339  0.30076821  0.28437726    -1.03500
O270        O  0.81866298  0.19008908  0.32781920    -0.90900
O271        O  0.79004771  0.27589844  0.19230450    -0.90500
O272        O  0.69565109  0.15047743  0.22398000    -0.90500
Mn273      Mn  0.77029051  0.19668772  0.33376345     1.47900
O274        O  0.81326448  0.21884877  0.23701436    -0.79000
C275        C  0.73465734  0.20294161  0.18598174     1.14700
O276        O  0.70206940  0.24299504  0.33670310    -0.77700
O277        O  0.78236076  0.16411772  0.25966020    -0.77400
Mn278      Mn  0.70763378  0.26304115  0.20928287     1.51100
O279        O  0.75003360  0.32590626  0.22294406    -0.89700
O280        O  0.75880029  0.16300335  0.30401626    -0.97200
O281        O  0.74019283  0.27656903  0.17426550    -0.92300
C282        C  0.77554219  0.14917979  0.28469699     1.12500
O283        O  0.21448213  0.69608413  0.16781007    -0.88900
C284        C  0.20976635  0.72981108  0.34825362     1.11100
O285        O  0.25846899  0.72150127  0.21903756    -1.36700
O286        O  0.16046772  0.74652206  0.28834667    -0.90400
O287        O  0.26050335  0.71196670  0.14706566    -0.91000
O288        O  0.24746110  0.78574347  0.17722697    -0.79900
O289        O  0.18955902  0.71601124  0.23138763    -1.02000
C290        C  0.23058138  0.83480490  0.25408176     1.21200
O291        O  0.28585790  0.77496573  0.24515007    -1.36900
Mn292      Mn  0.27819845  0.72832400  0.26629903     1.82100
O293        O  0.22244394  0.81794354  0.23061350    -0.78900
O294        O  0.17789043  0.79611022  0.29344460    -0.88300
C295        C  0.28510024  0.76277075  0.32803263     1.12300
C296        C  0.15526720  0.77616147  0.29031203     1.07000
O297        O  0.32501690  0.70926828  0.25895136    -0.79900
O298        O  0.23133438  0.75001116  0.27183924    -1.33600
O299        O  0.32701884  0.72958470  0.21307962    -0.99100
C300        C  0.31420265  0.84766333  0.21966554     1.05700
Mn301      Mn  0.22660835  0.78798948  0.30437968     1.48600
O302        O  0.31972502  0.82381595  0.20228987    -0.88300
Mn303      Mn  0.29361336  0.71834505  0.18290889     1.49600
O304        O  0.25480111  0.64984600  0.20431591    -0.92200
C305        C  0.17469962  0.73624881  0.21607976     1.18900
C306        C  0.28336794  0.64663699  0.19499480     1.11000
Mn307      Mn  0.23831215  0.76909655  0.22453142     1.81000
O308        O  0.27203674  0.78279193  0.31192587    -0.97300
Mn309      Mn  0.22325182  0.68604334  0.21570121     1.49300
C310        C  0.23110849  0.70570938  0.14448746     1.07500
Mn311      Mn  0.28998357  0.81105335  0.27989552     1.49900
C312        C  0.36174160  0.79035401  0.27329606     1.10400
O313        O  0.29263592  0.76403977  0.17838907    -1.03100
O314        O  0.21406905  0.75867004  0.34156678    -0.92800
C315        C  0.27371494  0.78017746  0.16369777     1.21700
O316        O  0.24420334  0.82067731  0.27544641    -1.03500
O317        O  0.20686208  0.70841084  0.32710525    -0.90900
O318        O  0.33816054  0.79980767  0.29009767    -0.90500
O319        O  0.30068024  0.67003679  0.18791886    -0.90500
Mn320      Mn  0.19691466  0.71420019  0.27841671     1.47900
O321        O  0.29345651  0.73753553  0.31405072    -0.79000
C322        C  0.34013220  0.71368241  0.23343086     1.14700
O323        O  0.18993268  0.76091897  0.20811807    -0.77700
O324        O  0.27045086  0.68029820  0.28371614    -0.77400
Mn325      Mn  0.32312065  0.77560021  0.21104336     1.51100
O326        O  0.30424274  0.84596304  0.24806152    -0.89700
O327        O  0.22543814  0.67947769  0.26230777    -0.97200
O328        O  0.35886013  0.78283440  0.24424719    -0.92300
C329        C  0.24575858  0.66476997  0.27688243     1.12500
C330        C  0.51692666  0.19533056  0.34418061     0.79500
N331        N  0.49203107  0.21062830  0.33054793    -0.78800
C332        C  0.46210335  0.20543119  0.34146564     0.81900
N333        N  0.45699584  0.18327941  0.36417391    -0.78700
C334        C  0.48168537  0.16742267  0.37717897     0.82000
N335        N  0.51162809  0.17342964  0.36706584    -0.80500
C336        C  0.52292242  0.28400866  0.22965136     0.79500
N337        N  0.52371617  0.30233066  0.20306804    -0.78800
C338        C  0.49667531  0.31437327  0.19021013     0.81900
N339        N  0.46829899  0.30734289  0.20364208    -0.78700
C340        C  0.46624825  0.28890198  0.22994302     0.82000
N341        N  0.49380823  0.27691119  0.24319054    -0.80500
C342        C  0.21890449  0.47193696  0.30516084     0.79500
N343        N  0.19212300  0.47202021  0.32331958    -0.78800
C344        C  0.17809901  0.49929620  0.33255462     0.81900
N345        N  0.19111418  0.52714971  0.32374242    -0.78700
C346        C  0.21799828  0.52893603  0.30575080     0.82000
N347        N  0.23199572  0.50072079  0.29579286    -0.80500
C348        C  0.32951623  0.51791839  0.18483882     0.79500
N349        N  0.34762964  0.51018964  0.15919119    -0.78800
C350        C  0.35794971  0.48004409  0.15522267     0.81900
N351        N  0.35015630  0.45761132  0.17664717    -0.78700
C352        C  0.33203092  0.46501366  0.20222904     0.82000
N353        N  0.32140895  0.49515143  0.20612692    -0.80500
C354        C  0.79394576  0.49315048  0.70828213     0.79500
N355        N  0.82102775  0.49128445  0.69079438    -0.78800
C356        C  0.83487461  0.51771344  0.67928619     0.81900
N357        N  0.82124278  0.54619576  0.68469041    -0.78700
C358        C  0.79390701  0.54894007  0.70195578     0.82000
N359        N  0.78017724  0.52208853  0.71390388    -0.80500
C360        C  0.68571568  0.52911223  0.82000383     0.79500
N361        N  0.69149175  0.50023394  0.80665001    -0.78800
C362        C  0.67956534  0.47370036  0.82083463     0.81900
N363        N  0.66129529  0.47636186  0.84752769    -0.78700
C364        C  0.65512265  0.50529192  0.86019874     0.82000
N365        N  0.66794297  0.53122204  0.84664207    -0.80500
C366        C  0.46149574  0.22191039  0.69592103     0.79500
N367        N  0.46526503  0.19623578  0.67705748    -0.78800
C368        C  0.49453788  0.18499427  0.66982704     0.81900
N369        N  0.52051745  0.19961548  0.68161863    -0.78700
C370        C  0.51741167  0.22550333  0.70059000     0.82000
N371        N  0.48766253  0.23600885  0.70884730    -0.80500
C372        C  0.44006735  0.32524967  0.79539753     0.79500
N373        N  0.47026942  0.31324651  0.79209612    -0.78800
C374        C  0.49451349  0.32532374  0.81005151     0.81900
N375        N  0.48784331  0.34752427  0.83241165    -0.78700
C376        C  0.45776162  0.35845361  0.83660831     0.82000
N377        N  0.43411997  0.34761327  0.81783447    -0.80500
N378        N  0.44287125  0.56968990  0.96678240    -0.37300
N379        N  0.43346525  0.50293668  0.95024610    -0.57900
N380        N  0.50099129  0.48672036  0.94856436    -0.37300
N381        N  0.51157401  0.55211700  0.96146503    -0.57900
C382        C  0.41198164  0.57033077  0.95804310     0.26300
C383        C  0.45538021  0.59768783  0.95768327     0.26300
C384        C  0.48808277  0.46392778  0.93014686     0.26300
C385        C  0.53149380  0.49019806  0.93890038     0.26300
C386        C  0.40415420  0.51244058  0.95938105     0.34900
C387        C  0.43229554  0.47122707  0.94684235     0.34900
C388        C  0.51173704  0.58366691  0.96616382     0.34900
C389        C  0.54191591  0.54202212  0.96400218     0.34900
C390        C  0.40395307  0.60029456  0.94703929    -0.22600
C391        C  0.43155192  0.61747155  0.94639002    -0.22600
C392        C  0.51088303  0.45192328  0.90948262    -0.22600
C393        C  0.53824035  0.46842251  0.91499133    -0.22600
C394        C  0.38432155  0.48634803  0.96175936    -0.23700
C395        C  0.40218892  0.46019769  0.95380269    -0.23700
C396        C  0.54234963  0.59380428  0.97217055    -0.23700
C397        C  0.56144898  0.56732179  0.97157197    -0.23700
C398        C  0.39305596  0.54321881  0.95304119    -0.19000
C399        C  0.48813027  0.60344417  0.95356349    -0.19000
C400        C  0.55280341  0.51385638  0.94944405    -0.19000
C401        C  0.45616424  0.45379480  0.93127888    -0.19000
H402        H  0.38133114  0.60780671  0.93729323     0.13900
H403        H  0.43421125  0.64091732  0.93637179     0.13900
H404        H  0.50798835  0.43381015  0.89154305     0.13900
H405        H  0.56016029  0.46543708  0.90176132     0.13900
H406        H  0.35896669  0.48640802  0.96605175     0.12200
H407        H  0.39358735  0.43619868  0.95136836     0.12200
H408        H  0.55036228  0.61807770  0.97382186     0.12200
H409        H  0.58718416  0.56725315  0.97266950     0.12200
H410        H  0.45554401  0.54992177  0.97444487     0.25400
H411        H  0.48954597  0.49926038  0.96667665     0.25400
N412        N  0.54379646  0.43876408  0.06869629    -0.37300
N413        N  0.53306482  0.50644889  0.05479813    -0.57900
N414        N  0.46790527  0.49679138  0.03295124    -0.37300
N415        N  0.46146588  0.41153872  0.06296657    -0.57900
C416        C  0.56886389  0.45220604  0.08340353     0.26300
C417        C  0.53894695  0.41013115  0.08254313     0.26300
C418        C  0.46685247  0.52841407  0.03794403     0.26300
C419        C  0.43759997  0.48621239  0.03338562     0.26300
C420        C  0.56449748  0.50699826  0.06084596     0.34900
C421        C  0.52450823  0.53627370  0.04693968     0.34900
C422        C  0.48962651  0.39883917  0.05436399     0.34900
C423        C  0.45194394  0.43005733  0.03859424     0.34900
C424        C  0.58072294  0.43136761  0.10609612    -0.22600
C425        C  0.56173592  0.40507845  0.10574286    -0.22600
C426        C  0.43551732  0.53859058  0.03847133    -0.22600
C427        C  0.41701227  0.51199716  0.03557559    -0.22600
C428        C  0.57620775  0.53733403  0.05619581    -0.23700
C429        C  0.55070304  0.55597829  0.04808396    -0.23700
C430        C  0.49704781  0.40747968  0.02347313    -0.23700
C431        C  0.47295033  0.42715724  0.01338037    -0.23700
C432        C  0.58035377  0.48340399  0.07852844    -0.19000
C433        C  0.51227851  0.39037930  0.07729121    -0.19000
C434        C  0.42984512  0.45498653  0.04294594    -0.19000
C435        C  0.49283419  0.54712908  0.04783225    -0.19000
H436        H  0.60012671  0.43516000  0.12247333     0.13900
H437        H  0.56388915  0.38517660  0.12176352     0.13900
H438        H  0.42693552  0.56235267  0.04312352     0.13900
H439        H  0.39141959  0.51160225  0.03806608     0.13900
H440        H  0.59999269  0.54571257  0.06116446     0.12200
H441        H  0.55102995  0.58143272  0.04520437     0.12200
H442        H  0.51933673  0.40326683  0.01116812     0.12200
H443        H  0.47303940  0.44091746  0.99185616     0.12200
H444        H  0.52987358  0.44928240  0.05121802     0.25400
H445        H  0.48793059  0.48240836  0.03414373     0.25400
C446        C  0.16446465  0.52446968  0.68800147     0.79500
N447        N  0.18022050  0.49821498  0.69904041    -0.78800
C448        C  0.17080781  0.46866382  0.68974030     0.81900
N449        N  0.14567079  0.46568236  0.66972626    -0.78700
C450        C  0.12971313  0.49154314  0.65918193     0.82000
N451        N  0.13930841  0.52079833  0.66815687    -0.80500
C452        C  0.29833804  0.49308388  0.80332474     0.79500
N453        N  0.31539529  0.49887982  0.82992667    -0.78800
C454        C  0.32480726  0.52848419  0.83708276     0.81900
N455        N  0.31740806  0.55276318  0.81766321    -0.78700
C456        C  0.30023088  0.54778806  0.79101842     0.82000
N457        N  0.29001272  0.51784700  0.78394185    -0.80500
C458        C  0.50078122  0.80744243  0.68634134     0.79500
N459        N  0.49889368  0.83376891  0.66804355    -0.78800
C460        C  0.47044018  0.84624439  0.66006469     0.81900
N461        N  0.44339319  0.83225346  0.67011197    -0.78700
C462        C  0.44468425  0.80568657  0.68826677     0.82000
N463        N  0.47347964  0.79321241  0.69662826    -0.80500
C464        C  0.52578943  0.69534472  0.79178134     0.79500
N465        N  0.49608429  0.70313476  0.78103485    -0.78800
C466        C  0.46981616  0.69306251  0.79741133     0.81900
N467        N  0.47354156  0.67731059  0.82517911    -0.78700
C468        C  0.50285990  0.67082564  0.83653218     0.82000
N469        N  0.52888392  0.67957701  0.81977329    -0.80500
C470        C  0.79386813  0.68514893  0.46627959     0.79500
N471        N  0.78053573  0.69812998  0.49297341    -0.78800
C472        C  0.79184524  0.68962184  0.52213406     0.81900
N473        N  0.81663468  0.66929463  0.52422950    -0.78700
C474        C  0.83046931  0.65707964  0.49798945     0.82000
N475        N  0.81898778  0.66487886  0.46895096    -0.80500
C476        C  0.68604637  0.80205023  0.53487663     0.79500
N477        N  0.69407213  0.78834483  0.50652476    -0.78800
C478        C  0.68345639  0.80158416  0.47876264     0.81900
N479        N  0.66604937  0.82874419  0.47963586    -0.78700
C480        C  0.65906981  0.84269959  0.50773062     0.82000
N481        N  0.66860830  0.82908639  0.53507539    -0.80500
C482        C  0.49104679  0.79237343  0.32113623     0.79500
N483        N  0.49737915  0.81996163  0.33619197    -0.78800
C484        C  0.52758607  0.82765288  0.34403592     0.81900
N485        N  0.55153077  0.80697687  0.33785969    -0.78700
C486        C  0.54571003  0.77905239  0.32309796     0.82000
N487        N  0.51544884  0.77219363  0.31365865    -0.80500
C488        C  0.46395389  0.66828275  0.19112686     0.79500
N489        N  0.49371137  0.67815308  0.19965487    -0.78800
C490        C  0.51986896  0.66744484  0.18337024     0.81900
N491        N  0.51589758  0.64778338  0.15824640    -0.78700
C492        C  0.48653410  0.63842042  0.14927169     0.82000
N493        N  0.46061252  0.64830762  0.16597163    -0.80500
N494        N  0.47686338  0.93574913  0.46252329    -0.37300
N495        N  0.54149994  0.95076715  0.47644351    -0.57900
N496        N  0.52975119  0.96620856  0.54418494    -0.37300
N497        N  0.46364975  0.95015189  0.52836848    -0.57900
C498        C  0.49299875  0.92057848  0.43916865     0.26300
C499        C  0.45009360  0.91891548  0.46801444     0.26300
C500        C  0.56106022  0.95855933  0.54461483     0.26300
C501        C  0.51800903  0.95880571  0.57319531     0.26300
C502        C  0.54358953  0.94883675  0.44462020     0.34900
C503        C  0.56944305  0.96189408  0.48693286     0.34900
C504        C  0.43382735  0.94467465  0.51817468     0.34900
C505        C  0.46122526  0.96107405  0.55838088     0.34900
C506        C  0.47590776  0.89432394  0.42926319    -0.22600
C507        C  0.44886246  0.89332231  0.44738391    -0.22600
C508        C  0.56988817  0.94928839  0.57491411    -0.22600
C509        C  0.54263980  0.94940743  0.59301313    -0.22600
C510        C  0.57291946  0.95953551  0.43432740    -0.23700
C511        C  0.58950927  0.96743743  0.46127917    -0.23700
C512        C  0.41203153  0.95255601  0.54162587    -0.23700
C513        C  0.42941163  0.96304391  0.56709142    -0.23700
C514        C  0.52313580  0.92943288  0.42712760    -0.19000
C515        C  0.42719858  0.92541104  0.49179294    -0.19000
C516        C  0.48538823  0.95520255  0.58057043    -0.19000
C517        C  0.58015394  0.95389028  0.51733399    -0.19000
H518        H  0.48258986  0.87686196  0.41164097     0.13900
H519        H  0.43095076  0.87503452  0.44613213     0.13900
H520        H  0.59301242  0.94075610  0.58238229     0.13900
H521        H  0.54077749  0.94112983  0.61727801     0.13900
H522        H  0.58248315  0.95838671  0.41044371     0.12200
H523        H  0.61449010  0.97339312  0.46204901     0.12200
H524        H  0.38660322  0.94854441  0.54134375     0.12200
H525        H  0.42010854  0.96773971  0.59065231     0.12200
H526        H  0.48375321  0.95647753  0.47392362     0.25400
H527        H  0.51659978  0.97283035  0.52435560     0.25400
N528        N  0.43971874  0.06633091  0.55585690    -0.37300
N529        N  0.42361846  0.06963347  0.47321243    -0.57900
N530        N  0.50535186  0.03099962  0.48356594    -0.37300
N531        N  0.50795679  0.04978762  0.55047583    -0.57900
C532        C  0.41190014  0.08142130  0.54921780     0.26300
C533        C  0.45189708  0.08035462  0.58204613     0.26300
C534        C  0.49809760  0.03634857  0.45277290     0.26300
C535        C  0.53712737  0.03496089  0.48648719     0.26300
C536        C  0.40540506  0.05812732  0.49690557     0.34900
C537        C  0.44123389  0.04504372  0.46246184     0.34900
C538        C  0.50537539  0.05432842  0.58202259     0.34900
C539        C  0.53746916  0.03819542  0.54498581     0.34900
C540        C  0.40581821  0.10424209  0.57207502    -0.22600
C541        C  0.43093743  0.10373122  0.59253835    -0.22600
C542        C  0.52594054  0.03981990  0.43529693    -0.22600
C543        C  0.55062834  0.03917956  0.45669709    -0.22600
C544        C  0.41084582  0.02606447  0.50070043    -0.23700
C545        C  0.43337066  0.01759543  0.47845220    -0.23700
C546        C  0.53337893  0.04537632  0.59688705    -0.23700
C547        C  0.55384460  0.03552916  0.57333153    -0.23700
C548        C  0.39392206  0.07779251  0.52107827    -0.19000
C549        C  0.48212704  0.07414638  0.59583129    -0.19000
C550        C  0.55276457  0.04152688  0.51544346    -0.19000
C551        C  0.46851021  0.04954749  0.44366615    -0.19000
H552        H  0.38627159  0.12095116  0.57311243     0.13900
H553        H  0.43373007  0.12011994  0.61200748     0.13900
H554        H  0.52785338  0.04658562  0.41055417     0.13900
H555        H  0.57526428  0.04442831  0.45136368     0.13900
H556        H  0.40160382  0.01135139  0.51953460     0.12200
H557        H  0.44470551  0.99478971  0.47606777     0.12200
H558        H  0.53933211  0.04842966  0.62169511     0.12200
H559        H  0.57877637  0.02975696  0.57628305     0.12200
H560        H  0.45047035  0.04857702  0.54240604     0.25400
H561        H  0.48893484  0.03015932  0.50199607     0.25400
C562        C  0.20821761  0.69908932  0.53579819     0.79500
N563        N  0.21895805  0.70937797  0.50693203    -0.78800
C564        C  0.20522821  0.69786944  0.47995181     0.81900
N565        N  0.17997158  0.67819941  0.48208914    -0.78700
C566        C  0.16886288  0.66900632  0.51072425     0.82000
N567        N  0.18316325  0.67910377  0.53741929    -0.80500
C568        C  0.30480198  0.78865052  0.46131355     0.79500
N569        N  0.28958271  0.77986272  0.48870496    -0.78800
C570        C  0.29829238  0.79344993  0.51680506     0.81900
N571        N  0.32128988  0.81574516  0.51709934    -0.78700
C572        C  0.33601619  0.82481923  0.49015884     0.82000
N573        N  0.32747499  0.81151521  0.46221785    -0.80500
C574        C  0.28321958  0.22742663  0.53722578     0.79500
N575        N  0.27437535  0.23978419  0.50813097    -0.78800
C576        C  0.28545890  0.22595210  0.48046975     0.81900
N577        N  0.30477252  0.20027656  0.48238474    -0.78700
C578        C  0.31349787  0.18802678  0.51071010     0.82000
N579        N  0.30242328  0.20139736  0.53795342    -0.80500
C580        C  0.18084898  0.33055828  0.47768374     0.79500
N581        N  0.18519028  0.32142947  0.50825722    -0.78800
C582        C  0.16514165  0.33241743  0.53115101     0.81900
N583        N  0.14035755  0.35154252  0.52338225    -0.78700
C584        C  0.13613306  0.36026750  0.49277015     0.82000
N585        N  0.15627401  0.34984830  0.47016994    -0.80500
C586        C  0.79715294  0.49846633  0.31878947     0.79500
N587        N  0.82052776  0.49154498  0.33977440    -0.78800
C588        C  0.82515129  0.46155901  0.35002010     0.81900
N589        N  0.80626737  0.43814154  0.33940047    -0.78700
C590        C  0.78266276  0.44421320  0.31847428     0.82000
N591        N  0.77817323  0.47453889  0.30754728    -0.80500
C592        C  0.69067965  0.46456588  0.21750289     0.79500
N593        N  0.67355565  0.46811905  0.19060348    -0.78800
C594        C  0.66751275  0.49719932  0.17880842     0.81900
N595        N  0.67820202  0.52307524  0.19407192    -0.78700
C596        C  0.69574172  0.52004197  0.22082289     0.82000
N597        N  0.70276167  0.49060713  0.23242538    -0.80500
N598        N  0.93461850  0.44203779  0.49652288    -0.37300
N599        N  0.95142118  0.45362709  0.56328890    -0.57900
N600        N  0.94118994  0.52057902  0.54830185    -0.37300
N601        N  0.92965296  0.50886802  0.48128017    -0.57900
C602        C  0.94074628  0.41254838  0.50728748     0.26300
C603        C  0.93115375  0.43995766  0.46467435     0.26300
C604        C  0.95140603  0.52183082  0.57868189     0.26300
C605        C  0.94124314  0.55050081  0.53682968     0.26300
C606        C  0.94334496  0.42268626  0.56513183     0.34900
C607        C  0.94902306  0.46510400  0.59320808     0.34900
C608        C  0.91594071  0.49633017  0.45515648     0.34900
C609        C  0.91914032  0.53905276  0.48329015     0.34900
C610        C  0.94163941  0.39156345  0.48204437    -0.22600
C611        C  0.93599685  0.40898079  0.45496023    -0.22600
C612        C  0.95819857  0.55286503  0.58665821    -0.22600
C613        C  0.95206024  0.57102279  0.56004403    -0.22600
C614        C  0.93758456  0.41413081  0.59633977    -0.23700
C615        C  0.94142809  0.44094392  0.61418959    -0.23700
C616        C  0.89772663  0.51911048  0.43985505    -0.23700
C617        C  0.89967835  0.54604238  0.45763388    -0.23700
C618        C  0.93520526  0.40363354  0.53889871    -0.19000
C619        C  0.91816037  0.46420366  0.44565465    -0.19000
C620        C  0.92484593  0.55969363  0.50908485    -0.19000
C621        C  0.94545221  0.49756571  0.60075206    -0.19000
H622        H  0.94337492  0.36602590  0.48336363     0.13900
H623        H  0.93310686  0.39952177  0.43124957     0.13900
H624        H  0.96449110  0.56173776  0.60990500     0.13900
H625        H  0.95282259  0.59661017  0.55876110     0.13900
H626        H  0.92932494  0.39143002  0.60493870     0.12200
H627        H  0.93635011  0.44317124  0.63932927     0.12200
H628        H  0.88332511  0.51645739  0.41878376     0.12200
H629        H  0.88702287  0.56780395  0.45262725     0.12200
H630        H  0.92842727  0.46038789  0.51010557     0.25400
H631        H  0.93021154  0.50204734  0.53841466     0.25400
N632        N  0.05616932  0.54566539  0.45187655    -0.37300
N633        N  0.04383480  0.53567889  0.52064816    -0.57900
N634        N  0.01860562  0.47241272  0.51153692    -0.37300
N635        N  0.04547791  0.46457753  0.42334285    -0.57900
C636        C  0.07155235  0.57052773  0.46470799     0.26300
C637        C  0.06833855  0.54104192  0.42229017     0.26300
C638        C  0.02391056  0.47108481  0.54316476     0.26300
C639        C  0.01848790  0.44237760  0.50046281     0.26300
C640        C  0.05047801  0.56683905  0.52044765     0.34900
C641        C  0.03502417  0.52823766  0.55061726     0.34900
C642        C  0.03793030  0.49324047  0.41150315     0.34900
C643        C  0.02200498  0.45690259  0.44391030     0.34900
C644        C  0.09308571  0.58248900  0.44265592    -0.22600
C645        C  0.09131049  0.56372807  0.41613465    -0.22600
C646        C  0.02413131  0.43975867  0.55293879    -0.22600
C647        C  0.02086694  0.42160790  0.52598931    -0.22600
C648        C  0.04559547  0.57949495  0.55046958    -0.23700
C649        C  0.03623388  0.55495412  0.56965964    -0.23700
C650        C  0.00823100  0.50260102  0.42240653    -0.23700
C651        C  0.99829203  0.47951908  0.44306919    -0.23700
C652        C  0.06809914  0.58187365  0.49624599    -0.19000
C653        C  0.06182771  0.51458148  0.40260145    -0.19000
C654        C  0.02667112  0.43478413  0.46860669    -0.19000
C655        C  0.03398423  0.49688409  0.56212529    -0.19000
H656        H  0.10946539  0.60195811  0.44569542     0.13900
H657        H  0.10611511  0.56612188  0.39522659     0.13900
H658        H  0.02884839  0.43091179  0.57660299     0.13900
H659        H  0.02299694  0.39611054  0.52515029     0.13900
H660        H  0.05059839  0.60340747  0.55820683     0.12200
H661        H  0.03219820  0.55644563  0.59499105     0.12200
H662        H  0.99735700  0.52572637  0.41962554     0.12200
H663        H  0.97882379  0.48161725  0.45943906     0.12200
H664        H  0.03946167  0.53171367  0.46346077     0.25400
H665        H  0.01961186  0.49248131  0.49746812     0.25400
C666        C  0.77515190  0.30956740  0.55769045     0.79500
N667        N  0.80193259  0.32727091  0.55924497    -0.78800
C668        C  0.81823085  0.33491500  0.53275675     0.81900
N669        N  0.80763174  0.32520391  0.50413462    -0.78700
C670        C  0.78054219  0.30792199  0.50179243     0.82000
N671        N  0.76444269  0.29934540  0.52881686    -0.80500
C672        C  0.66474610  0.18772224  0.48059356     0.79500
N673        N  0.67251836  0.20305651  0.50814939    -0.78800
C674        C  0.66129929  0.19230417  0.53680634     0.81900
N675        N  0.64228818  0.16634171  0.53747554    -0.78700
C676        C  0.63499294  0.15074601  0.51038916     0.82000
N677        N  0.64627252  0.16139199  0.48223117    -0.80500
C678        C  0.80642058  0.68909282  0.03401996     0.79500
N679        N  0.82233291  0.66124399  0.03065128    -0.78800
C680        C  0.83113373  0.65059583  0.00170345     0.81900
N681        N  0.82477094  0.66826959  0.97573072    -0.78700
C682        C  0.80857535  0.69597502  0.97836896     0.82000
N683        N  0.79882959  0.70633601  0.00762098    -0.80500
C684        C  0.68923031  0.81006682  0.96575994     0.79500
N685        N  0.70495169  0.79640223  0.99060864    -0.78800
C686        C  0.69338040  0.79998420  0.02072952     0.81900
N687        N  0.66644925  0.81697618  0.02574073    -0.78700
C688        C  0.65086676  0.83091040  0.00141100     0.82000
N689        N  0.66223867  0.82717997  0.97139971    -0.80500
C690        C  0.00032919  0.70204377  0.81731718     0.79500
N691        N  0.99424563  0.67271635  0.82896851    -0.78800
C692        C  0.96402248  0.66222774  0.83254890     0.81900
N693        N  0.93944772  0.68124640  0.82427097    -0.78700
C694        C  0.94485681  0.71076882  0.81281169     0.82000
N695        N  0.97535980  0.72113721  0.80903015    -0.80500
C696        C  0.02559317  0.82955173  0.70441998     0.79500
N697        N  0.03177335  0.84662594  0.67784320    -0.78800
C698        C  0.00778154  0.85646545  0.65890736     0.81900
N699        N  0.97731533  0.84938960  0.66656822    -0.78700
C700        C  0.97062111  0.83219154  0.69294632     0.82000
N701        N  0.99495852  0.82160027  0.71167758    -0.80500
C702        C  0.67057725  0.99253047  0.81417609     0.79500
N703        N  0.64463764  0.99617761  0.83310155    -0.78800
C704        C  0.63528275  0.02532526  0.84286008     0.81900
N705        N  0.65254155  0.05095142  0.83439555    -0.78700
C706        C  0.67863158  0.04783333  0.81564837     0.82000
N707        N  0.68761773  0.01853575  0.80503275    -0.80500
C708        C  0.79507736  0.03033906  0.70249009     0.79500
N709        N  0.78307283  0.00407497  0.71713353    -0.78800
C710        C  0.79206452  0.97461155  0.70705585     0.81900
N711        N  0.81262497  0.97154254  0.68226851    -0.78700
C712        C  0.82485766  0.99761624  0.66815250     0.82000
N713        N  0.81612316  0.02669673  0.67832903    -0.80500
C714        C  0.27127430  0.20585798  0.97733707     0.79500
N715        N  0.25988832  0.21334524  0.00754445    -0.78800
C716        C  0.27573639  0.20220203  0.03430435     0.81900
N717        N  0.30227552  0.18419741  0.02977950    -0.78700
C718        C  0.31370309  0.17739832  0.00057583     0.82000
N719        N  0.29819426  0.18810217  0.97465441    -0.80500
C720        C  0.19675005  0.36067217  0.03928716     0.79500
N721        N  0.20558870  0.34894572  0.01070392    -0.78800
C722        C  0.20139730  0.36624505  0.98407719     0.81900
N723        N  0.18769416  0.39518491  0.98614440    -0.78700
C724        C  0.17779461  0.40687408  0.01448438     0.82000
N725        N  0.18249646  0.38948724  0.04115751    -0.80500
C726        C  0.69503075  0.00040506  0.19741514     0.79500
N727        N  0.71124724  0.97255966  0.20280394    -0.78800
C728        C  0.69721259  0.94430097  0.19524705     0.81900
N729        N  0.66733036  0.94492505  0.18295841    -0.78700
C730        C  0.65096896  0.97198798  0.17884781     0.82000
N731        N  0.66503347  0.99972369  0.18561506    -0.80500
C732        C  0.82134462  0.96588772  0.31765810     0.79500
N733        N  0.84155962  0.96559617  0.34275475    -0.78800
C734        C  0.84974054  0.99281373  0.35762940     0.81900
N735        N  0.83767813  0.02078206  0.34728771    -0.78700
C736        C  0.81747670  0.02191045  0.32210117     0.82000
N737        N  0.80902178  0.99422219  0.30738799    -0.80500
N738        N  0.44049671  0.05197261  0.95152505    -0.37300
N739        N  0.44816053  0.05923731  0.02069537    -0.57900
N740        N  0.45993959  0.99258445  0.03158640    -0.37300
N741        N  0.45063072  0.98487874  0.96262337    -0.57900
C742        C  0.42450481  0.07943548  0.95667774     0.26300
C743        C  0.42896993  0.03974740  0.92415389     0.26300
C744        C  0.45277024  0.00278143  0.06132977     0.26300
C745        C  0.45060573  0.96195972  0.02999105     0.26300
C746        C  0.44373779  0.08943004  0.01122415     0.34900
C747        C  0.45818265  0.06032296  0.05107480     0.34900
C748        C  0.45008915  0.98490712  0.93053806     0.34900
C749        C  0.45616572  0.95473274  0.97180403     0.34900
C750        C  0.40482934  0.08601764  0.93119915    -0.22600
C751        C  0.40758190  0.06107166  0.91070609    -0.22600
C752        C  0.44093757  0.97761322  0.07906932    -0.22600
C753        C  0.43982627  0.95198481  0.05941252    -0.22600
C754        C  0.45161530  0.11002374  0.03551795    -0.23700
C755        C  0.46148919  0.09158090  0.06061937    -0.23700
C756        C  0.45617741  0.95461898  0.91924413    -0.23700
C757        C  0.45960010  0.93545353  0.94541838    -0.23700
C758        C  0.42474627  0.09739765  0.98495237    -0.19000
C759        C  0.43429229  0.00854640  0.91272685    -0.19000
C760        C  0.44815779  0.94343357  0.00222334    -0.19000
C761        C  0.45410598  0.03465203  0.07212500    -0.19000
H762        H  0.38887724  0.10601517  0.92839025     0.13900
H763        H  0.39370929  0.05837946  0.88930574     0.13900
H764        H  0.43192761  0.97760155  0.10311121     0.13900
H765        H  0.43043435  0.92897163  0.06568573     0.13900
H766        H  0.44830923  0.13544270  0.03590475     0.12200
H767        H  0.46677006  0.09997544  0.08431339     0.12200
H768        H  0.45472584  0.94664519  0.89484894     0.12200
H769        H  0.46151381  0.90988247  0.94519254     0.12200
H770        H  0.45676337  0.04132611  0.96669813     0.25400
H771        H  0.46904858  0.00613422  0.01309348     0.25400
N772        N  0.53993071  0.97065294  0.98202098    -0.37300
N773        N  0.53535557  0.03789104  0.99607097    -0.57900
N774        N  0.52875618  0.02842024  0.06464864    -0.37300
N775        N  0.53348946  0.96063951  0.04973289    -0.57900
C776        C  0.55400987  0.98457085  0.95660396     0.26300
C777        C  0.55469858  0.94236564  0.98636153     0.26300
C778        C  0.53748812  0.05916011  0.06393724     0.26300
C779        C  0.53772197  0.01690625  0.09318567     0.26300
C780        C  0.53299024  0.03856758  0.96418732     0.34900
C781        C  0.52960438  0.06753518  0.00645375     0.34900
C782        C  0.53307563  0.93034102  0.03967776     0.34900
C783        C  0.52866381  0.96019014  0.08142673     0.34900
C784        C  0.57715091  0.96459378  0.94417679    -0.22600
C785        C  0.57781271  0.93823486  0.96302995    -0.22600
C786        C  0.54918950  0.06804365  0.09336045    -0.22600
C787        C  0.54952413  0.04129556  0.11179683    -0.22600
C788        C  0.52483892  0.06876077  0.95409934    -0.23700
C789        C  0.52319990  0.08727259  0.98097532    -0.23700
C790        C  0.52638210  0.91044334  0.06504183    -0.23700
C791        C  0.52419586  0.92935768  0.09157431    -0.23700
C792        C  0.54745761  0.01536436  0.94499819    -0.19000
C793        C  0.54871440  0.92070534  0.01148005    -0.19000
C794        C  0.53978552  0.98450116  0.10130212    -0.19000
C795        C  0.53998192  0.07800301  0.03630441    -0.19000
H796        H  0.59307622  0.96902113  0.92442367     0.13900
H797        H  0.59453429  0.91891005  0.96029072     0.13900
H798        H  0.55866532  0.09089310  0.10002453     0.13900
H799        H  0.55914200  0.03966075  0.13554788     0.13900
H800        H  0.52357941  0.07715827  0.92983624     0.12200
H801        H  0.52007893  0.11271024  0.98155041     0.12200
H802        H  0.52703040  0.88481321  0.06503774     0.12200
H803        H  0.52282286  0.92120526  0.11592313     0.12200
H804        H  0.52136646  0.98000017  0.99556589     0.25400
H805        H  0.51996639  0.01534315  0.04566440     0.25400
C806        C  0.69379488  0.18346127  0.05732130     0.79500
N807        N  0.66554195  0.16825762  0.06080598    -0.78800
C808        C  0.64661807  0.16313936  0.03534182     0.81900
N809        N  0.65629498  0.17241651  0.00624556    -0.78700
C810        C  0.68442733  0.18743347  0.00205566     0.82000
N811        N  0.70327490  0.19331189  0.02781719    -0.80500
C812        C  0.80863898  0.28156040  0.98353060     0.79500
N813        N  0.79769676  0.26709808  0.01062480    -0.78800
C814        C  0.81027923  0.27528700  0.03947468     0.81900
N815        N  0.83212458  0.29846744  0.04108649    -0.78700
C816        C  0.84220336  0.31357812  0.01486656     0.82000
N817        N  0.83032931  0.30534463  0.98614710    -0.80500
C818        C  0.34279854  0.97620265  0.19169057     0.79500
N819        N  0.37105884  0.98635629  0.17937946    -0.78800
C820        C  0.37850937  0.01767388  0.18002939     0.81900
N821        N  0.35732792  0.03852234  0.19229623    -0.78700
C822        C  0.32941041  0.02856714  0.20462158     0.82000
N823        N  0.32215832  0.99752892  0.20431583    -0.80500
C824        C  0.19982619  0.02562807  0.28869103     0.79500
N825        N  0.21186708  0.99960931  0.27225717    -0.78800
C826        C  0.20479796  0.96907802  0.28256301     0.81900
N827        N  0.18651548  0.96531838  0.30897161    -0.78700
C828        C  0.17494379  0.99050071  0.32525316     0.82000
N829        N  0.18142462  0.02011342  0.31476087    -0.80500
C830        C  0.99214452  0.68035917  0.18768388     0.79500
N831        N  0.99732744  0.65574011  0.16759245    -0.78800
C832        C  0.02703486  0.64872385  0.15712317     0.81900
N833        N  0.05192406  0.66648898  0.16678548    -0.78700
C834        C  0.04751355  0.69147146  0.18663236     0.82000
N835        N  0.01745560  0.69824513  0.19764947    -0.80500
C836        C  0.96439964  0.79272447  0.29796570     0.79500
N837        N  0.99463461  0.79009848  0.28600093    -0.78800
C838        C  0.01992681  0.79954326  0.30409019     0.81900
N839        N  0.01450818  0.81113357  0.33361204    -0.78700
C840        C  0.98474644  0.81358040  0.34568979     0.82000
N841        N  0.95980891  0.80428803  0.32776615    -0.80500
N842        N  0.92761092  0.42581893  0.07731292    -0.37300
N843        N  0.93642860  0.45994023  0.99462246    -0.57900
N844        N  0.00539259  0.46209288  0.99932858    -0.37300
N845        N  0.01063902  0.45352949  0.06841208    -0.57900
C846        C  0.91376606  0.44614344  0.05668152     0.26300
C847        C  0.94948346  0.44278414  0.09328582     0.26300
C848        C  0.99979301  0.46756506  0.96807979     0.26300
C849        C  0.03626842  0.46953453  0.00457602     0.26300
C850        C  0.90659073  0.44926181  0.99955758     0.34900
C851        C  0.94286526  0.45518320  0.96363955     0.34900
C852        C  0.00657605  0.43809387  0.09628983     0.34900
C853        C  0.04158840  0.45064002  0.06073735     0.34900
C854        C  0.92438553  0.47658941  0.06189998    -0.22600
C855        C  0.94727093  0.47452175  0.08499275    -0.22600
C856        C  0.02680647  0.47916072  0.95356621    -0.22600
C857        C  0.04964234  0.48104359  0.97663034    -0.22600
C858        C  0.89312576  0.44013957  0.97092707    -0.23700
C859        C  0.91637083  0.44347434  0.94818506    -0.23700
C860        C  0.03530683  0.42631540  0.10710248    -0.23700
C861        C  0.05760893  0.43432455  0.08458495    -0.23700
C862        C  0.89776881  0.43634548  0.02918121    -0.19000
C863        C  0.97633701  0.42888416  0.10741480    -0.19000
C864        C  0.05462569  0.45945165  0.03104334    -0.19000
C865        C  0.97382897  0.45556304  0.95097782    -0.19000
H866        H  0.91813245  0.49732945  0.04833463     0.13900
H867        H  0.96275534  0.49348175  0.09251777     0.13900
H868        H  0.03029209  0.48371886  0.92850009     0.13900
H869        H  0.07430858  0.48718940  0.97255596     0.13900
H870        H  0.87057687  0.42827616  0.96763635     0.12200
H871        H  0.91481241  0.43574655  0.92373245     0.12200
H872        H  0.03930063  0.41156759  0.12775803     0.12200
H873        H  0.08226864  0.42689956  0.08486609     0.12200
H874        H  0.92607243  0.40114660  0.07678874     0.25400
H875        H  0.99039820  0.44981796  0.01473792     0.25400
N876        N  0.96152170  0.54329469  0.96080060    -0.37300
N877        N  0.97303997  0.54043558  0.03016560    -0.57900
N878        N  0.03872718  0.55039425  0.01216557    -0.37300
N879        N  0.02742154  0.55105340  0.94258226    -0.57900
C880        C  0.93261713  0.53716810  0.97310936     0.26300
C881        C  0.95942149  0.54079554  0.92895834     0.26300
C882        C  0.04119742  0.54237575  0.04301918     0.26300
C883        C  0.06807215  0.54906873  0.99943926     0.26300
C884        C  0.94272819  0.55124324  0.02921603     0.34900
C885        C  0.98525129  0.55119345  0.05784968     0.34900
C886        C  0.01234347  0.56349893  0.91707223     0.34900
C887        C  0.05509813  0.56702183  0.94529118     0.34900
C888        C  0.91205975  0.52866126  0.94893092    -0.22600
C889        C  0.92912838  0.53058260  0.92096331    -0.22600
C890        C  0.07261970  0.53538166  0.05003821    -0.22600
C891        C  0.08971934  0.53962466  0.02234322    -0.22600
C892        C  0.93515959  0.56721142  0.05699390    -0.23700
C893        C  0.96204246  0.56711050  0.07518745    -0.23700
C894        C  0.03114866  0.58680843  0.90326584    -0.23700
C895        C  0.05828626  0.58867281  0.92082350    -0.23700
C896        C  0.92269017  0.54968326  0.00244872    -0.19000
C897        C  0.98074512  0.55602658  0.90786226    -0.19000
C898        C  0.07606064  0.56480761  0.97128735    -0.19000
C899        C  0.01795447  0.55040943  0.06566735    -0.19000
H900        H  0.88665311  0.52497247  0.95096232     0.13900
H901        H  0.91935983  0.52855557  0.89729371     0.13900
H902        H  0.08245152  0.53080260  0.07333066     0.13900
H903        H  0.11537271  0.53881330  0.01998450     0.13900
H904        H  0.91299522  0.57898382  0.06292507     0.12200
H905        H  0.96453796  0.57917550  0.09768984     0.12200
H906        H  0.02558018  0.60250849  0.88381510     0.12200
H907        H  0.07732335  0.60547419  0.91705558     0.12200
H908        H  0.97945431  0.55467277  0.97295467     0.25400
H909        H  0.01941324  0.56162147  0.00182498     0.25400
C910        C  0.30770746  0.82307791  0.03623371     0.79500
N911        N  0.29520900  0.81310680  0.00797630    -0.78800
C912        C  0.30799704  0.82377352  0.97998681     0.81900
N913        N  0.33304549  0.84387365  0.98051875    -0.78700
C914        C  0.34585233  0.85317794  0.00833594     0.82000
N915        N  0.33318830  0.84286254  0.03603524    -0.80500
C916        C  0.18334585  0.71656214  0.96108672     0.79500
N917        N  0.16503225  0.69058166  0.95694396    -0.78800
C918        C  0.15565689  0.67342772  0.98227330     0.81900
N919        N  0.16478665  0.68194931  0.01170070    -0.78700
C920        C  0.18349005  0.70757373  0.01634054     0.82000
N921        N  0.19288943  0.72510847  0.99078724    -0.80500
C922        C  0.01859502  0.28037221  0.21105151     0.79500
N923        N  0.01357783  0.30550924  0.19137603    -0.78800
C924        C  0.98381478  0.31579541  0.18433481     0.81900
N925        N  0.95833707  0.30066718  0.19681552    -0.78700
C926        C  0.96185986  0.27500175  0.21600223     0.82000
N927        N  0.99235451  0.26478148  0.22349983    -0.80500
C928        C  0.02490820  0.17186766  0.32527282     0.79500
N929        N  0.99448516  0.18172556  0.32162245    -0.78800
C930        C  0.97159306  0.17156179  0.34186754     0.81900
N931        N  0.97931471  0.15154250  0.36577353    -0.78700
C932        C  0.00979817  0.14214192  0.36967994     0.82000
N933        N  0.03263943  0.15229593  0.34955583    -0.80500
C934        C  0.96351834  0.31347247  0.83601471     0.79500
N935        N  0.96457940  0.33826747  0.85641011    -0.78800
C936        C  0.99265234  0.35050419  0.86580904     0.81900
N937        N  0.02021693  0.33803017  0.85452403    -0.78700
C938        C  0.01990013  0.31296996  0.83417873     0.82000
N939        N  0.99135234  0.30065518  0.82477672    -0.80500
C940        C  0.93764292  0.19236398  0.72069267     0.79500
N941        N  0.96833764  0.19992201  0.72801719    -0.78800
C942        C  0.99278883  0.18917444  0.70931243     0.81900
N943        N  0.98595889  0.17265230  0.68255455    -0.78700
C944        C  0.95545117  0.16579789  0.67484620     0.82000
N945        N  0.93144599  0.17578184  0.69384884    -0.80500
N946        N  0.04144982  0.93916479  0.44655042    -0.37300
N947        N  0.04805834  0.00569572  0.46011935    -0.57900
N948        N  0.98093732  0.01446644  0.48123728    -0.37300
N949        N  0.97492082  0.94770694  0.46257419    -0.57900
C950        C  0.06601534  0.94698490  0.42704998     0.26300
C951        C  0.02731951  0.91339432  0.43378277     0.26300
C952        C  0.99000053  0.04483637  0.47733422     0.26300
C953        C  0.94958643  0.01336953  0.47361124     0.26300
C954        C  0.07819693  0.99877300  0.45109559     0.34900
C955        C  0.04846276  0.03501727  0.47283718     0.34900
C956        C  0.97660283  0.91589302  0.46338138     0.34900
C957        C  0.94586089  0.95579285  0.47359241     0.34900
C958        C  0.06813925  0.92533957  0.40242715    -0.22600
C959        C  0.04374953  0.90429283  0.40654944    -0.22600
C960        C  0.96349247  0.06359809  0.47103233    -0.22600
C961        C  0.93816427  0.04361888  0.46793653    -0.22600
C962        C  0.09813284  0.02371235  0.45826122    -0.23700
C963        C  0.07931743  0.04664626  0.47203518    -0.23700
C964        C  0.94848441  0.90362782  0.47559532    -0.23700
C965        C  0.92864357  0.92905971  0.48124243    -0.23700
C966        C  0.08580510  0.97383918  0.43007513    -0.19000
C967        C  0.99916982  0.89875758  0.44532955    -0.19000
C968        C  0.93233194  0.98547981  0.46746526    -0.19000
C969        C  0.02162965  0.05503272  0.47188271    -0.19000
H970        H  0.08475778  0.92530164  0.38272917     0.13900
H971        H  0.03807571  0.88538122  0.39024021     0.13900
H972        H  0.96310345  0.08872763  0.46592601     0.13900
H973        H  0.91456414  0.05055293  0.46047239     0.13900
H974        H  0.12296756  0.02612068  0.45181488     0.12200
H975        H  0.08675130  0.07054180  0.47747406     0.12200
H976        H  0.94192843  0.87891842  0.47724531     0.12200
H977        H  0.90386172  0.92807381  0.48827854     0.12200
H978        H  0.03442469  0.95062438  0.46731368     0.25400
H979        H  0.99606236  0.99536389  0.48527540     0.25400
N980        N  0.94654785  0.04122733  0.55366249    -0.37300
N981        N  0.95838770  0.97322422  0.54635919    -0.57900
N982        N  0.02508254  0.99069250  0.54950509    -0.37300
N983        N  0.01340906  0.05955726  0.55150187    -0.57900
C984        C  0.91716843  0.02955280  0.54908812     0.26300
C985        C  0.94475726  0.07288901  0.55027866     0.26300
C986        C  0.02679358  0.95958407  0.54241394     0.26300
C987        C  0.05434857  0.00299581  0.54546361     0.26300
C988        C  0.92810338  0.97278581  0.55736951     0.34900
C989        C  0.97115767  0.94484126  0.55430307     0.34900
C990        C  0.00009631  0.08570977  0.56476122     0.34900
C991        C  0.04345221  0.05792237  0.56291218     0.34900
C992        C  0.89630164  0.05404748  0.54222761    -0.22600
C993        C  0.91388145  0.08154100  0.54258994    -0.22600
C994        C  0.05752150  0.95197464  0.53308263    -0.22600
C995        C  0.07501473  0.97951454  0.53503170    -0.22600
C996        C  0.92109040  0.94361912  0.57050809    -0.23700
C997        C  0.94821745  0.92594741  0.56860304    -0.23700
C998        C  0.02229097  0.10139246  0.58327051    -0.23700
C999        C  0.04968585  0.08390233  0.58199558    -0.23700
C1000       C  0.90795743  0.99945085  0.55967123    -0.19000
C1001       C  0.96728819  0.09351204  0.56338844    -0.19000
C1002       C  0.06391515  0.03140548  0.55993263    -0.19000
C1003       C  0.00406459  0.93746435  0.55281537    -0.19000
H1004       H  0.87069512  0.05249322  0.54011217     0.13900
H1005       H  0.90447312  0.10538579  0.54093229     0.13900
H1006       H  0.06685515  0.92852538  0.52825364     0.13900
H1007       H  0.10053172  0.98147908  0.53207233     0.13900
H1008       H  0.89918905  0.93630316  0.58187701     0.12200
H1009       H  0.95070317  0.90249624  0.57846396     0.12200
H1010       H  0.01888543  0.12226207  0.59776363     0.12200
H1011       H  0.07113808  0.08887773  0.59520111     0.12200
H1012       H  0.96509398  0.02904272  0.56405442     0.25400
H1013       H  0.00677358  0.00151333  0.56170547     0.25400
C1014       C  0.28715962  0.02605741  0.81255982     0.79500
N1015       N  0.27124495  0.99949351  0.80278862    -0.78800
C1016       C  0.28454396  0.97024949  0.80774794     0.81900
N1017       N  0.31361131  0.96811785  0.82146917    -0.78700
C1018       C  0.32995178  0.99434984  0.82948939     0.82000
N1019       N  0.31655805  0.02318639  0.82542418    -0.80500
C1020       C  0.17246768  0.99347001  0.70551019     0.79500
N1021       N  0.18221945  0.01986382  0.72165897    -0.78800
C1022       C  0.17317568  0.04927258  0.71114875     0.81900
N1023       N  0.15529136  0.05199521  0.68443269    -0.78700
C1024       C  0.14572617  0.02584781  0.66864600     0.82000
N1025       N  0.15418312  0.99694289  0.67934816    -0.80500
O1026       O  0.19850756  0.24934892  0.35400492    -0.88900
C1027       C  0.28549842  0.14707735  0.23716301     1.11100
O1028       O  0.21616920  0.25115425  0.28376965    -1.36700
O1029       O  0.31912269  0.20237504  0.30394228    -0.90400
O1030       O  0.19455903  0.29775352  0.33329760    -0.91000
O1031       O  0.25761650  0.31789880  0.29177909    -0.79900
O1032       O  0.25583608  0.21921715  0.32940578    -1.02000
C1033       C  0.32893000  0.27289303  0.24835574     1.21200
O1034       O  0.24406119  0.27513022  0.23092867    -1.36900
Mn1035     Mn  0.22237315  0.22927698  0.23772500     1.82100
O1036       O  0.31205016  0.28301141  0.27102705    -0.78900
O1037       O  0.33800336  0.20032944  0.25449550    -0.88300
C1038       C  0.25454869  0.22051258  0.17349280     1.12300
C1039       C  0.34200633  0.20315088  0.28417490     1.07000
O1040       O  0.17426950  0.23767880  0.22223863    -0.79900
O1041       O  0.26862550  0.22236697  0.25881517    -1.33600
O1042       O  0.17303719  0.28434825  0.24110352    -0.99100
C1043       C  0.27280431  0.34758083  0.21400909     1.05700
Mn1044     Mn  0.30302102  0.21517304  0.22286198     1.48600
O1045       O  0.24280084  0.34466276  0.21260316    -0.88300
Mn1046     Mn  0.18257850  0.28901130  0.28644958     1.49600
O1047       O  0.16418470  0.20965865  0.30679259    -0.92200
C1048       C  0.26924851  0.24101378  0.34312035     1.18900
C1049       C  0.14166948  0.22920693  0.30236386     1.11000
Mn1050     Mn  0.26349896  0.26959386  0.27773556     1.81000
O1051       O  0.27602529  0.23310468  0.18848417    -0.97300
Mn1052     Mn  0.21082015  0.21620211  0.31939617     1.49300
C1053       C  0.19838978  0.27931680  0.35674667     1.07500
Mn1054     Mn  0.28219365  0.27802588  0.19816056     1.49900
C1055       C  0.22361177  0.29895296  0.15634950     1.10400
O1056       O  0.21234019  0.32167845  0.26998490    -1.03100
O1057       O  0.28803611  0.16874368  0.21634033    -0.92800
C1058       C  0.23470102  0.33519092  0.28308146     1.21700
O1059       O  0.31477371  0.25968465  0.22663412    -1.03500
O1060       O  0.28518768  0.15281146  0.26675984    -0.90900
O1061       O  0.25278028  0.29439351  0.16226735    -0.90500
O1062       O  0.14580351  0.25877468  0.29926973    -0.90500
Mn1063     Mn  0.27219242  0.18967727  0.29664392     1.47900
O1064       O  0.22971176  0.21355102  0.18914510    -0.79000
C1065       C  0.15830462  0.26237014  0.22873340     1.14700
O1066       O  0.27828911  0.26372750  0.32597626    -0.77700
O1067       O  0.20655269  0.18106809  0.24627855    -0.77400
Mn1068     Mn  0.20902000  0.31081734  0.22501974     1.51100
O1069       O  0.29175051  0.32412405  0.21208667    -0.89700
O1070       O  0.22682122  0.18070594  0.29243058    -0.97200
O1071       O  0.20234175  0.29855524  0.17785838    -0.92300
C1072       C  0.21376884  0.16564575  0.27117605     1.12500
C1073       C  0.08795136  0.02761271  0.58539243    -0.06800
C1074       C  0.07725017  0.01274073  0.61326853    -0.18000
C1075       C  0.09512036  0.01333041  0.64097058     0.10400
C1076       C  0.12505323  0.02812959  0.64082671    -0.06800
C1077       C  0.13621687  0.04274317  0.61298075    -0.18000
C1078       C  0.11786042  0.04268697  0.58517894     0.10400
S1079       S  0.07755179  0.99656635  0.67632258    -0.33000
S1080       S  0.13307924  0.06302249  0.55076709    -0.33000
H1081       H  0.11580967  0.04540017  0.52847147     0.28400
H1082       H  0.09154438  0.01781496  0.69782969     0.28400
H1083       H  0.05373364  0.00230831  0.61397873     0.19000
H1084       H  0.15939916  0.05390907  0.61283016     0.19000
C1085       C  0.94882071  0.15048093  0.64429693    -0.06800
C1086       C  0.96007432  0.16513906  0.61650991    -0.18000
C1087       C  0.96235655  0.14836004  0.58792707     0.10400
C1088       C  0.95470417  0.11591501  0.58769084    -0.06800
C1089       C  0.93990789  0.10251001  0.61456642    -0.18000
C1090       C  0.93621098  0.11971291  0.64261386     0.10400
S1091       S  0.97808529  0.16850425  0.55358988    -0.33000
S1092       S  0.91905189  0.09985755  0.67639976    -0.33000
H1093       H  0.89984028  0.12560046  0.68553580     0.28400
H1094       H  0.96706028  0.14656967  0.53106045     0.28400
H1095       H  0.96872198  0.18926785  0.61751803     0.19000
H1096       H  0.93330926  0.07772484  0.61448294     0.19000
C1097       C  0.05040991  0.18712418  0.30776874    -0.06800
C1098       C  0.05263905  0.22001845  0.31084923    -0.18000
C1099       C  0.08196221  0.23495869  0.30836520     0.10400
C1100       C  0.10927190  0.21658793  0.30095796    -0.06800
C1101       C  0.10577168  0.18437865  0.29331078    -0.18000
C1102       C  0.07660055  0.16944983  0.29678497     0.10400
S1103       S  0.08304027  0.27623406  0.31931484    -0.33000
S1104       S  0.07465048  0.12746793  0.28914603    -0.33000
H1105       H  0.04150447  0.12660797  0.28459612     0.28400
H1106       H  0.10635556  0.27165316  0.34284562     0.28400
H1107       H  0.03238435  0.23355448  0.31939814     0.19000
H1108       H  0.12617056  0.17030103  0.28603429     0.19000
C1109       C  0.02372612  0.07864858  0.44608376    -0.06800
C1110       C  0.01595284  0.06727485  0.41569574    -0.18000
C1111       C  0.01273158  0.08749927  0.39004957     0.10400
C1112       C  0.01751322  0.11998608  0.39473651    -0.06800
C1113       C  0.02588727  0.13167467  0.42479118    -0.18000
C1114       C  0.02885737  0.11122414  0.45080606     0.10400
S1115       S  0.99987392  0.07071733  0.35273698    -0.33000
S1116       S  0.03653524  0.12834841  0.48927316    -0.33000
H1117       H  0.04413797  0.10026960  0.50537074     0.28400
H1118       H  0.01486701  0.09291014  0.33290741     0.28400
H1119       H  0.01076176  0.04235097  0.41239685     0.19000
H1120       H  0.02875630  0.15694045  0.42823364     0.19000
C1121       C  0.05309594  0.27349908  0.22021751    -0.06800
C1122       C  0.06759618  0.24378766  0.21463656    -0.18000
C1123       C  0.10126304  0.23928346  0.21658952     0.10400
C1124       C  0.12195887  0.26492500  0.22441964    -0.06800
C1125       C  0.10694877  0.29420007  0.23101675    -0.18000
C1126       C  0.07360107  0.29857946  0.22939850     0.10400
S1127       S  0.11612856  0.20005045  0.20885033    -0.33000
S1128       S  0.05853103  0.33726118  0.24005105    -0.33000
H1129       H  0.02935589  0.32640472  0.25235552     0.28400
H1130       H  0.13700331  0.21024229  0.18474690     0.28400
H1131       H  0.05278975  0.22414901  0.20738707     0.19000
H1132       H  0.12136497  0.31423770  0.23795931     0.19000
C1133       C  0.09847523  0.59120939  0.97531062    -0.06800
C1134       C  0.08644645  0.61857470  0.99005333    -0.18000
C1135       C  0.10429640  0.64610357  0.99133874     0.10400
C1136       C  0.13514912  0.64609443  0.97830816    -0.06800
C1137       C  0.14742436  0.61877027  0.96364549    -0.18000
C1138       C  0.12916564  0.59109650  0.96202592     0.10400
S1139       S  0.08607597  0.68071443  0.00897223    -0.33000
S1140       S  0.14476082  0.55583508  0.94336762    -0.33000
H1141       H  0.17492014  0.56824839  0.93599271     0.28400
H1142       H  0.10178363  0.70303567  0.98977443     0.28400
H1143       H  0.06241566  0.61873857  0.99954962     0.19000
H1144       H  0.17135579  0.61908117  0.95400597     0.19000
C1145       C  0.99258510  0.37824604  0.88686338    -0.06800
C1146       C  0.98295210  0.40760637  0.87438989    -0.18000
C1147       C  0.97794671  0.43385543  0.89421935     0.10400
C1148       C  0.98190669  0.43053881  0.92731253    -0.06800
C1149       C  0.99174312  0.40114286  0.93956207    -0.18000
C1150       C  0.99753775  0.37520533  0.91979501     0.10400
S1151       S  0.96533096  0.47029973  0.87622008    -0.33000
S1152       S  0.00845143  0.33830376  0.93847011    -0.33000
H1153       H  0.02759934  0.32691196  0.91357460     0.28400
H1154       H  0.98157809  0.48913480  0.89813497     0.28400
H1155       H  0.97870521  0.40989354  0.84910072     0.19000
H1156       H  0.99411082  0.39818139  0.96503226     0.19000
C1157       C  0.97364947  0.39856475  0.12527305    -0.06800
C1158       C  0.96582227  0.40009875  0.15765311    -0.18000
C1159       C  0.96877287  0.37336614  0.17737264     0.10400
C1160       C  0.97921779  0.34429624  0.16436404    -0.06800
C1161       C  0.98616829  0.34250046  0.13184877    -0.18000
C1162       C  0.98332090  0.36909318  0.11209505     0.10400
S1163       S  0.96165985  0.37715038  0.21950352    -0.33000
S1164       S  0.99368075  0.36368362  0.07068443    -0.33000
H1165       H  0.97916998  0.39098532  0.05841013     0.28400
H1166       H  0.95516746  0.40985945  0.21963882     0.28400
H1167       H  0.95894350  0.42271551  0.16774369     0.19000
H1168       H  0.99414999  0.32019433  0.12180168     0.19000
C1169       C  0.98056549  0.82745041  0.37771970    -0.06800
C1170       C  0.00502089  0.82250207  0.39993388    -0.18000
C1171       C  0.00880613  0.84263325  0.42597880     0.10400
C1172       C  0.98858218  0.86927779  0.42903302    -0.06800
C1173       C  0.96153900  0.87141063  0.40948257    -0.18000
C1174       C  0.95678394  0.85019470  0.38454604     0.10400
S1175       S  0.04266278  0.83582731  0.45139544    -0.33000
S1176       S  0.92207398  0.85610849  0.36027055    -0.33000
H1177       H  0.91307129  0.82407032  0.36188570     0.28400
H1178       H  0.03287897  0.85616859  0.47588889     0.28400
H1179       H  0.02274464  0.80424225  0.39569587     0.19000
H1180       H  0.94544048  0.89141224  0.41167720     0.19000
C1181       C  0.02868885  0.57160727  0.09165623    -0.06800
C1182       C  0.04037336  0.60139213  0.08246791    -0.18000
C1183       C  0.04249041  0.62625426  0.10407169     0.10400
C1184       C  0.03191517  0.62172309  0.13552678    -0.06800
C1185       C  0.02247016  0.59133821  0.14540693    -0.18000
C1186       C  0.02160629  0.56597295  0.12390203     0.10400
S1187       S  0.05476670  0.66421023  0.08904557    -0.33000
S1188       S  0.00934428  0.52765278  0.13818731    -0.33000
H1189       H  0.02281732  0.51016459  0.11302987     0.28400
H1190       H  0.07751942  0.66887105  0.11286085     0.28400
H1191       H  0.04581492  0.60598947  0.05770009     0.19000
H1192       H  0.01489930  0.58760109  0.16975648     0.19000
C1193       C  0.20651407  0.06072846  0.28145118    -0.06800
C1194       C  0.20796163  0.08142628  0.30782115    -0.18000
C1195       C  0.20898318  0.11470952  0.30503831     0.10400
C1196       C  0.20929755  0.12968674  0.27475421    -0.06800
C1197       C  0.20864011  0.10917874  0.24802817    -0.18000
C1198       C  0.20733299  0.07539190  0.25098979     0.10400
S1199       S  0.20864904  0.13652773  0.34187467    -0.33000
S1200       S  0.20680944  0.05251254  0.21499044    -0.33000
H1201       H  0.18403536  0.03075552  0.22593211     0.28400
H1202       H  0.18470349  0.15754924  0.33188554     0.28400
H1203       H  0.20750492  0.07151813  0.33156951     0.19000
H1204       H  0.20965174  0.11947396  0.22448206     0.19000
C1205       C  0.15371918  0.98612259  0.35323343    -0.06800
C1206       C  0.12628358  0.00493739  0.35507370    -0.18000
C1207       C  0.10426112  0.00129939  0.37968900     0.10400
C1208       C  0.11020341  0.97959131  0.40460463    -0.06800
C1209       C  0.13808008  0.96108933  0.40328591    -0.18000
C1210       C  0.15968399  0.96379348  0.37763633     0.10400
S1211       S  0.06814158  0.02393175  0.37661209    -0.33000
S1212       S  0.19505667  0.93934750  0.37678434    -0.33000
H1213       H  0.18768141  0.92101628  0.40370992     0.28400
H1214       H  0.04790932  0.99984312  0.38760460     0.28400
H1215       H  0.12114720  0.02171740  0.33625414     0.19000
H1216       H  0.14246574  0.94410157  0.42204464     0.19000
C1217       C  0.30566091  0.05230182  0.21275102    -0.06800
C1218       C  0.29664807  0.07316574  0.18851069    -0.18000
C1219       C  0.28559295  0.10345552  0.19564766     0.10400
C1220       C  0.28535513  0.11339884  0.22769756    -0.06800
C1221       C  0.28917495  0.09042202  0.25179591    -0.18000
C1222       C  0.29890070  0.05974320  0.24450638     0.10400
S1223       S  0.27374756  0.12821585  0.16284945    -0.33000
S1224       S  0.30625704  0.03262670  0.27672881    -0.33000
H1225       H  0.29757937  0.00544363  0.25961768     0.28400
H1226       H  0.24845190  0.14258683  0.17956177     0.28400
H1227       H  0.30052977  0.06663356  0.16387527     0.19000
H1228       H  0.28682806  0.09675547  0.27663959     0.19000
C1229       C  0.85816338  0.34390176  0.01931977    -0.06800
C1230       C  0.84135806  0.36736117  0.03626015    -0.18000
C1231       C  0.85409208  0.39756822  0.04055668     0.10400
C1232       C  0.88445296  0.40403425  0.02836426    -0.06800
C1233       C  0.90195166  0.38003848  0.01281798    -0.18000
C1234       C  0.88892399  0.35015305  0.00775915     0.10400
S1235       S  0.83095751  0.42822366  0.05980548    -0.33000
S1236       S  0.91240513  0.32149965  0.98610213    -0.33000
H1237       H  0.89898355  0.29445396  0.00016611     0.28400
H1238       H  0.80504178  0.40900427  0.06840977     0.28400
H1239       H  0.81771428  0.36221570  0.04517908     0.19000
H1240       H  0.92558537  0.38505408  0.00372682     0.19000
C1241       C  0.56691051  0.10081107  0.03585298    -0.06800
C1242       C  0.56143183  0.13351824  0.03375067    -0.18000
C1243       C  0.58696196  0.15488292  0.03445819     0.10400
C1244       C  0.61833828  0.14320241  0.03802454    -0.06800
C1245       C  0.62372103  0.11068494  0.03992240    -0.18000
C1246       C  0.59858556  0.08937228  0.03830680     0.10400
S1247       S  0.57808653  0.19649804  0.03043939    -0.33000
S1248       S  0.60759625  0.04749272  0.03801696    -0.33000
H1249       H  0.63964741  0.04982737  0.04724873     0.28400
H1250       H  0.60535673  0.20762507  0.04607536     0.28400
H1251       H  0.53728944  0.14236699  0.03165371     0.19000
H1252       H  0.64796909  0.10195858  0.04131068     0.19000
C1253       C  0.41171486  0.99745245  0.88793554    -0.06800
C1254       C  0.41434656  0.00873012  0.85661985    -0.18000
C1255       C  0.38851884  0.00641835  0.83568438     0.10400
C1256       C  0.36034990  0.99134984  0.84596878    -0.06800
C1257       C  0.35931262  0.97683351  0.87557438    -0.18000
C1258       C  0.38384973  0.98092664  0.89704782     0.10400
S1259       S  0.39213922  0.02427550  0.79696071    -0.33000
S1260       S  0.37541917  0.96861096  0.93693711    -0.33000
H1261       H  0.38464739  0.99723065  0.95119138     0.28400
H1262       H  0.36993664  0.00441351  0.78201446     0.28400
H1263       H  0.43539955  0.02167337  0.84945030     0.19000
H1264       H  0.33757869  0.96540801  0.88345098     0.19000
C1265       C  0.37201217  0.87599233  0.00823903    -0.06800
C1266       C  0.40353814  0.86523063  0.01161528    -0.18000
C1267       C  0.42924891  0.88640904  0.00917915     0.10400
C1268       C  0.42308156  0.91862616  0.00326513    -0.06800
C1269       C  0.39145743  0.92925768  0.00150787    -0.18000
C1270       C  0.36597789  0.90836562  0.00314477     0.10400
S1271       S  0.46948205  0.87266593  0.01449095    -0.33000
S1272       S  0.32643350  0.92445061  0.99787642    -0.33000
H1273       H  0.31042893  0.90246571  0.01716398     0.28400
H1274       H  0.46165753  0.84162124  0.02367431     0.28400
H1275       H  0.40791939  0.84027007  0.01567930     0.19000
H1276       H  0.38665562  0.95438275  0.99949381     0.19000
C1277       C  0.44018531  0.04127783  0.10416629    -0.06800
C1278       C  0.45367155  0.02660756  0.13107233    -0.18000
C1279       C  0.43491521  0.02008256  0.15795860     0.10400
C1280       C  0.40292369  0.03017313  0.15845337    -0.06800
C1281       C  0.39157581  0.04967450  0.13419316    -0.18000
C1282       C  0.40928840  0.05477486  0.10678239     0.10400
S1283       S  0.45222121  0.99729213  0.18972788    -0.33000
S1284       S  0.38909005  0.07384860  0.07408480    -0.33000
H1285       H  0.36465095  0.08836524  0.09187286     0.28400
H1286       H  0.43056411  0.00725526  0.21328327     0.28400
H1287       H  0.47743487  0.01666338  0.12954405     0.19000
H1288       H  0.36706401  0.05774274  0.13495221     0.19000
C1289       C  0.87087706  0.99165103  0.38553900    -0.06800
C1290       C  0.85907955  0.00079054  0.41543874    -0.18000
C1291       C  0.87806600  0.99831651  0.44284797     0.10400
C1292       C  0.90946413  0.98661965  0.44027176    -0.06800
C1293       C  0.92121206  0.97802701  0.41008923    -0.18000
C1294       C  0.90235508  0.98050982  0.38282338     0.10400
S1295       S  0.86229643  0.01041197  0.48075612    -0.33000
S1296       S  0.91919950  0.97128504  0.34435232    -0.33000
H1297       H  0.94955192  0.96218948  0.35511086     0.28400
H1298       H  0.83105035  0.01653033  0.47048782     0.28400
H1299       H  0.83488194  0.00955484  0.41725561     0.19000
H1300       H  0.94563571  0.97004787  0.40784248     0.19000
C1301       C  0.62117083  0.97142944  0.16102746    -0.06800
C1302       C  0.62413997  0.96912099  0.12815935    -0.18000
C1303       C  0.59768427  0.97176583  0.10855869     0.10400
C1304       C  0.56704851  0.97600268  0.12218368    -0.06800
C1305       C  0.56382379  0.97682763  0.15540249    -0.18000
C1306       C  0.59070908  0.97444521  0.17506141     0.10400
S1307       S  0.60408089  0.97179992  0.06609373    -0.33000
S1308       S  0.58469958  0.97611239  0.21747757    -0.33000
H1309       H  0.61338187  0.96127070  0.22612896     0.28400
H1310       H  0.63737654  0.97509956  0.06654084     0.28400
H1311       H  0.64763452  0.96636995  0.11778206     0.19000
H1312       H  0.54050839  0.98044851  0.16590712     0.19000
C1313       C  0.20077241  0.34089546  0.06745448    -0.06800
C1314       C  0.22957492  0.32456170  0.07048665    -0.18000
C1315       C  0.23704417  0.30827311  0.09824543     0.10400
C1316       C  0.21477591  0.30828389  0.12376303    -0.06800
C1317       C  0.18460893  0.32207241  0.11920325    -0.18000
C1318       C  0.17732879  0.33825827  0.09132948     0.10400
S1319       S  0.27597777  0.28986767  0.10045129    -0.33000
S1320       S  0.13789182  0.35497892  0.08791056    -0.33000
H1321       H  0.13528714  0.34979865  0.05499905     0.28400
H1322       H  0.28220297  0.28909920  0.06758127     0.28400
H1323       H  0.24713721  0.32613820  0.05164524     0.19000
H1324       H  0.16692412  0.32162032  0.13799848     0.19000
C1325       C  0.15042721  0.42835540  0.01404388    -0.06800
C1326       C  0.12557920  0.41839486  0.99443224    -0.18000
C1327       C  0.09451542  0.42700504  0.00070524     0.10400
C1328       C  0.08802406  0.45001915  0.02423323    -0.06800
C1329       C  0.11334283  0.46261700  0.04196530    -0.18000
C1330       C  0.14447955  0.45129827  0.03767703     0.10400
S1331       S  0.06438401  0.40421398  0.98059944    -0.33000
S1332       S  0.17518166  0.46588842  0.06357638    -0.33000
H1333       H  0.20094966  0.45679327  0.04415533     0.28400
H1334       H  0.04398222  0.40195881  0.00706891     0.28400
H1335       H  0.12948960  0.39996130  0.97695071     0.19000
H1336       H  0.10857432  0.47981955  0.06043414     0.19000
C1337       C  0.25869019  0.21477012  0.13783314    -0.06800
C1338       C  0.23281637  0.21692886  0.11635530    -0.18000
C1339       C  0.23705360  0.21499947  0.08264693     0.10400
C1340       C  0.26775713  0.20977255  0.06923798    -0.06800
C1341       C  0.29329689  0.20794711  0.09107203    -0.18000
C1342       C  0.28936710  0.21016197  0.12431628     0.10400
S1343       S  0.20246339  0.21931041  0.05811114    -0.33000
S1344       S  0.32431961  0.20579097  0.14912566    -0.33000
H1345       H  0.34713476  0.20271819  0.12478813     0.28400
H1346       H  0.21624595  0.24324437  0.03937633     0.28400
H1347       H  0.20917102  0.22122060  0.12578725     0.19000
H1348       H  0.31715565  0.20448040  0.08198902     0.19000
C1349       C  0.39659760  0.11825409  0.99091301    -0.06800
C1350       C  0.39976515  0.15125706  0.98895516    -0.18000
C1351       C  0.37319328  0.17129933  0.99227714     0.10400
C1352       C  0.34272486  0.15804533  0.99727304    -0.06800
C1353       C  0.33953876  0.12520247  0.99917533    -0.18000
C1354       C  0.36585383  0.10514504  0.99597136     0.10400
S1355       S  0.37969019  0.21338912  0.98929988    -0.33000
S1356       S  0.35762016  0.06309415  0.99662638    -0.33000
H1357       H  0.38782743  0.05239955  0.00566489     0.28400
H1358       H  0.35382492  0.22282811  0.00836297     0.28400
H1359       H  0.42299677  0.16141003  0.98447660     0.19000
H1360       H  0.31614607  0.11503088  0.00280890     0.19000
C1361       C  0.84685483  0.99504087  0.64130356    -0.06800
C1362       C  0.83537452  0.98413365  0.61207015    -0.18000
C1363       C  0.85425690  0.98552291  0.58461960     0.10400
C1364       C  0.88483702  0.99915350  0.58637654    -0.06800
C1365       C  0.89627355  0.00966214  0.61591507    -0.18000
C1366       C  0.87789985  0.00714871  0.64338855     0.10400
S1367       S  0.83776067  0.96964923  0.54855976    -0.33000
S1368       S  0.89564644  0.01867584  0.68060412    -0.33000
H1369       H  0.87814297  0.99764642  0.69973383     0.28400
H1370       H  0.86658394  0.96356878  0.53275827     0.28400
H1371       H  0.81139657  0.97488677  0.61056429     0.19000
H1372       H  0.92027363  0.01882580  0.61772476     0.19000
C1373       C  0.60852133  0.02879423  0.86517090    -0.06800
C1374       C  0.61391291  0.04613167  0.89291362    -0.18000
C1375       C  0.59298364  0.04420533  0.91867392     0.10400
C1376       C  0.56510056  0.02562645  0.91605227    -0.06800
C1377       C  0.55810028  0.01098852  0.88696797    -0.18000
C1378       C  0.57959160  0.01230886  0.86151187     0.10400
S1379       S  0.60431940  0.06261088  0.95568112    -0.33000
S1380       S  0.56926181  0.99184450  0.82540719    -0.33000
H1381       H  0.58701520  0.01148270  0.80502864     0.28400
H1382       H  0.63568075  0.07053701  0.94710631     0.28400
H1383       H  0.63595531  0.05910900  0.89535101     0.19000
H1384       H  0.53682744  0.99671053  0.88486709     0.19000
C1385       C  0.01452267  0.87475356  0.63012452    -0.06800
C1386       C  0.00615285  0.86210424  0.60048508    -0.18000
C1387       C  0.00741209  0.88072901  0.57297153     0.10400
C1388       C  0.01567263  0.91298179  0.57554744    -0.06800
C1389       C  0.02761185  0.92426536  0.60460957    -0.18000
C1390       C  0.02704564  0.90552357  0.63188136     0.10400
S1391       S  0.99459568  0.86342941  0.53612126    -0.33000
S1392       S  0.03972868  0.92314471  0.66872330    -0.33000
H1393       H  0.01513179  0.91052801  0.68753463     0.28400
H1394       H  0.00833764  0.88684622  0.51680518     0.28400
H1395       H  0.99742220  0.83803138  0.59899041     0.19000
H1396       H  0.03430099  0.94889305  0.60689861     0.19000
C1397       C  0.95863576  0.63018844  0.84521725    -0.06800
C1398       C  0.97778738  0.60531412  0.83377244    -0.18000
C1399       C  0.98138114  0.57723694  0.85110030     0.10400
C1400       C  0.96660722  0.57480069  0.88126899    -0.06800
C1401       C  0.94344962  0.59748941  0.88975802    -0.18000
C1402       C  0.93917761  0.62500153  0.87200497     0.10400
S1403       S  0.00917681  0.54818972  0.83592200    -0.33000
S1404       S  0.91257693  0.65463613  0.88778365    -0.33000
H1405       H  0.89527469  0.65730946  0.85934782     0.28400
H1406       H  0.00400972  0.52521714  0.85934567     0.28400
H1407       H  0.99196941  0.60875718  0.81249338     0.19000
H1408       H  0.93101693  0.59564555  0.91222550     0.19000
C1409       C  0.62161666  0.84976810  0.00749873    -0.06800
C1410       C  0.59669682  0.84873733  0.98529712    -0.18000
C1411       C  0.57019379  0.86889967  0.98784936     0.10400
C1412       C  0.56896148  0.89143019  0.01272359    -0.06800
C1413       C  0.59238151  0.89018794  0.03646922    -0.18000
C1414       C  0.61855168  0.86976376  0.03431927     0.10400
S1415       S  0.54038931  0.86628010  0.95712941    -0.33000
S1416       S  0.64896185  0.87204246  0.06465162    -0.33000
H1417       H  0.63586364  0.89733560  0.08217929     0.28400
H1418       H  0.51879790  0.88846327  0.96956491     0.28400
H1419       H  0.59829011  0.83267840  0.96526559     0.19000
H1420       H  0.59131812  0.90690583  0.05583745     0.19000
C1421       C  0.89760133  0.57429705  0.00025817    -0.06800
C1422       C  0.86696543  0.56867680  0.01218361    -0.18000
C1423       C  0.84395925  0.59283547  0.01208393     0.10400
C1424       C  0.85173174  0.62271048  0.99902006    -0.06800
C1425       C  0.88195828  0.62780501  0.98625542    -0.18000
C1426       C  0.90527690  0.60441720  0.98769491     0.10400
S1427       S  0.80553858  0.58428600  0.02921788    -0.33000
S1428       S  0.94557487  0.61481077  0.97675870    -0.33000
H1429       H  0.93784151  0.64204840  0.95910323     0.28400
H1430       H  0.78838279  0.60678090  0.01149059     0.28400
H1431       H  0.86130104  0.54575286  0.02225891     0.19000
H1432       H  0.88802824  0.65109460  0.97731765     0.19000
C1433       C  0.90586382  0.38462462  0.54238742    -0.06800
C1434       C  0.87697445  0.40142604  0.54015794    -0.18000
C1435       C  0.84809843  0.38581925  0.53655288     0.10400
C1436       C  0.84793320  0.35252090  0.53543609    -0.06800
C1437       C  0.87652200  0.33553269  0.53907722    -0.18000
C1438       C  0.90556778  0.35129348  0.54280759     0.10400
S1439       S  0.81259918  0.40993088  0.53357281    -0.33000
S1440       S  0.94113198  0.32780131  0.54779556    -0.33000
H1441       H  0.96045131  0.35198069  0.55998883     0.28400
H1442       H  0.79344667  0.38800652  0.51756267     0.28400
H1443       H  0.87717697  0.42711668  0.53982890     0.19000
H1444       H  0.87614720  0.30986347  0.53913909     0.19000
C1445       C  0.89866953  0.45456832  0.41822304    -0.06800
C1446       C  0.86875307  0.44159568  0.42505807    -0.18000
C1447       C  0.84482232  0.44152405  0.40229382     0.10400
C1448       C  0.85094820  0.45469699  0.37217883    -0.06800
C1449       C  0.88169031  0.46501850  0.36441530    -0.18000
C1450       C  0.90580950  0.46486309  0.38722974     0.10400
S1451       S  0.80571756  0.42920443  0.41446554    -0.33000
S1452       S  0.94457656  0.48049386  0.37777389    -0.33000
H1453       H  0.93726031  0.49077359  0.34685338     0.28400
H1454       H  0.80386694  0.40546236  0.39110407     0.28400
H1455       H  0.86318784  0.43405633  0.44907337     0.19000
H1456       H  0.88625028  0.47463243  0.34098674     0.19000
C1457       C  0.19818916  0.31619319  0.45125763    -0.06800
C1458       C  0.20576072  0.33638186  0.42603080    -0.18000
C1459       C  0.20780280  0.32509909  0.39508212     0.10400
C1460       C  0.20206291  0.29259690  0.38906738    -0.06800
C1461       C  0.19865614  0.27188717  0.41510860    -0.18000
C1462       C  0.19689460  0.28331704  0.44619121     0.10400
S1463       S  0.21596608  0.35413117  0.36492565    -0.33000
S1464       S  0.18948164  0.25611368  0.47850991    -0.33000
H1465       H  0.18381306  0.22913761  0.45982435     0.28400
H1466       H  0.23834583  0.33473997  0.34958692     0.28400
H1467       H  0.20718756  0.36170336  0.43014634     0.19000
H1468       H  0.19549090  0.24679627  0.41112204     0.19000
C1469       C  0.10870278  0.37889166  0.48336760    -0.06800
C1470       C  0.07947316  0.36360442  0.47916087    -0.18000
C1471       C  0.05258691  0.38071493  0.46975865     0.10400
C1472       C  0.05485393  0.41381636  0.46618202    -0.06800
C1473       C  0.08479643  0.42844134  0.46841133    -0.18000
C1474       C  0.11178280  0.41116864  0.47627950     0.10400
S1475       S  0.01582284  0.35964700  0.46446258    -0.33000
S1476       S  0.14921231  0.43174875  0.47843004    -0.33000
H1477       H  0.15900662  0.41701866  0.50675777     0.28400
H1478       H  0.00215871  0.38221194  0.44399669     0.28400
H1479       H  0.07764433  0.33832148  0.48323433     0.19000
H1480       H  0.08682874  0.45394386  0.46653452     0.19000
C1481       C  0.27501011  0.23508321  0.44759757    -0.06800
C1482       C  0.29018511  0.26006772  0.43143397    -0.18000
C1483       C  0.28858364  0.26327990  0.39788411     0.10400
C1484       C  0.27201002  0.24054556  0.37922257    -0.06800
C1485       C  0.25634472  0.21607149  0.39586075    -0.18000
C1486       C  0.25746212  0.21327675  0.42915037     0.10400
S1487       S  0.31024105  0.29558036  0.38045392    -0.33000
S1488       S  0.23715264  0.17992933  0.44666237    -0.33000
H1489       H  0.23287649  0.19347274  0.47688959     0.28400
H1490       H  0.28348446  0.30770840  0.36471034     0.28400
H1491       H  0.30477541  0.27635412  0.44485819     0.19000
H1492       H  0.24296039  0.19850601  0.38281080     0.19000
C1493       C  0.14067605  0.64925490  0.51274652    -0.06800
C1494       C  0.14450100  0.61833387  0.52386917    -0.18000
C1495       C  0.12000323  0.59643228  0.52067334     0.10400
C1496       C  0.09114137  0.60601754  0.50644826    -0.06800
C1497       C  0.08641735  0.63766267  0.49771352    -0.18000
C1498       C  0.11099591  0.65954606  0.50090774     0.10400
S1499       S  0.12700982  0.55560957  0.53171524    -0.33000
S1500       S  0.10349583  0.69981735  0.48854065    -0.33000
H1501       H  0.12661254  0.71399164  0.50793092     0.28400
H1502       H  0.15413824  0.56129951  0.55033992     0.28400
H1503       H  0.16741287  0.61082342  0.53297368     0.19000
H1504       H  0.06411286  0.64487589  0.48701218     0.19000
C1505       C  0.61428435  0.12281153  0.51142489    -0.06800
C1506       C  0.62761878  0.09249424  0.50739115    -0.18000
C1507       C  0.60871688  0.06520662  0.50956674     0.10400
C1508       C  0.57563005  0.06842489  0.51456177    -0.06800
C1509       C  0.56253782  0.09893915  0.51832829    -0.18000
C1510       C  0.58142841  0.12593929  0.51712775     0.10400
S1511       S  0.62815450  0.02732911  0.50649585    -0.33000
S1512       S  0.56221011  0.16376901  0.52291782    -0.33000
H1513       H  0.58087391  0.18015947  0.50056785     0.28400
H1514       H  0.60716623  0.01181829  0.52720757     0.28400
H1515       H  0.65300698  0.09006525  0.50337934     0.19000
H1516       H  0.53713254  0.10176667  0.52202375     0.19000
C1517       C  0.37057043  0.10324993  0.51354395    -0.06800
C1518       C  0.38043533  0.12914184  0.49511598    -0.18000
C1519       C  0.36243739  0.15708275  0.49397028     0.10400
C1520       C  0.33374201  0.15935338  0.51153808    -0.06800
C1521       C  0.32335103  0.13311318  0.52914121    -0.18000
C1522       C  0.34137238  0.10506030  0.53015626     0.10400
S1523       S  0.37858177  0.18963639  0.47138069    -0.33000
S1524       S  0.32802500  0.07211175  0.55406462    -0.33000
H1525       H  0.30203157  0.08777144  0.56831462     0.28400
H1526       H  0.36764596  0.21356849  0.49199197     0.28400
H1527       H  0.40330716  0.12842069  0.48317837     0.19000
H1528       H  0.30106004  0.13465363  0.54205892     0.19000
C1529       C  0.39983797  0.90347992  0.49412454    -0.06800
C1530       C  0.40193299  0.87932035  0.51689645    -0.18000
C1531       C  0.38202116  0.85305752  0.51570762     0.10400
C1532       C  0.35908294  0.85087823  0.49130557    -0.06800
C1533       C  0.35629459  0.87555939  0.46910246    -0.18000
C1534       C  0.37609091  0.90207028  0.47059423     0.10400
S1535       S  0.38870474  0.82233371  0.54477648    -0.33000
S1536       S  0.37070843  0.93292386  0.44148843    -0.33000
H1537       H  0.38398512  0.95728028  0.45993946     0.28400
H1538       H  0.38247174  0.79706998  0.52394490     0.28400
H1539       H  0.42062608  0.87998484  0.53459026     0.19000
H1540       H  0.33819222  0.87447161  0.45085412     0.19000
C1541       C  0.53433066  0.85830371  0.35916663    -0.06800
C1542       C  0.55517610  0.85851274  0.38500767    -0.18000
C1543       C  0.55595892  0.88431680  0.40577498     0.10400
C1544       C  0.53576178  0.91061404  0.40007660    -0.06800
C1545       C  0.51915536  0.91247463  0.37131689    -0.18000
C1546       C  0.51798125  0.88646264  0.35087342     0.10400
S1547       S  0.57941375  0.88124762  0.44149699    -0.33000
S1548       S  0.49359045  0.89009441  0.31587926    -0.33000
H1549       H  0.51146894  0.86861238  0.29744285     0.28400
H1550       H  0.59411673  0.85202184  0.43470521     0.28400
H1551       H  0.56847856  0.83724124  0.39067757     0.19000
H1552       H  0.50404648  0.93281117  0.36665560     0.19000
C1553       C  0.63997422  0.87165018  0.50914444    -0.06800
C1554       C  0.60814076  0.86839437  0.51793124    -0.18000
C1555       C  0.58839937  0.89482546  0.52119649     0.10400
C1556       C  0.60144709  0.92563464  0.51761687    -0.06800
C1557       C  0.63375619  0.92884021  0.50977587    -0.18000
C1558       C  0.65298061  0.90212553  0.50464679     0.10400
S1559       S  0.54619303  0.88842889  0.52749232    -0.33000
S1560       S  0.69378670  0.90864748  0.49294751    -0.33000
H1561       H  0.69817994  0.88021175  0.47624996     0.28400
H1562       H  0.54673872  0.85513551  0.52673168     0.28400
H1563       H  0.59858008  0.84484663  0.52136507     0.19000
H1564       H  0.64374647  0.95223325  0.50656500     0.19000
C1565       C  0.85688295  0.63452525  0.50197656    -0.06800
C1566       C  0.85288503  0.61064084  0.52468614    -0.18000
C1567       C  0.87592967  0.58721807  0.52895345     0.10400
C1568       C  0.90435874  0.58829831  0.51094985    -0.06800
C1569       C  0.90930155  0.61331010  0.48956837    -0.18000
C1570       C  0.88568665  0.63627486  0.48467177     0.10400
S1571       S  0.86740122  0.55456651  0.55538777    -0.33000
S1572       S  0.89358568  0.66693270  0.45606618    -0.33000
H1573       H  0.87911065  0.69102043  0.47419426     0.28400
H1574       H  0.83542220  0.56229489  0.56179750     0.28400
H1575       H  0.83090024  0.60957736  0.53816195     0.19000
H1576       H  0.93083144  0.61381121  0.47532380     0.19000
C1577       C  0.46937934  0.87433228  0.63992731    -0.06800
C1578       C  0.47066745  0.90441575  0.65414557    -0.18000
C1579       C  0.47484614  0.93176464  0.63568004     0.10400
C1580       C  0.47791472  0.92865559  0.60246929    -0.06800
C1581       C  0.47594209  0.89845733  0.58850092    -0.18000
C1582       C  0.47161404  0.87141273  0.60674703     0.10400
S1583       S  0.47785473  0.96930096  0.65584952    -0.33000
S1584       S  0.47146386  0.83377838  0.58636271    -0.33000
H1585       H  0.45222840  0.81765031  0.60835406     0.28400
H1586       H  0.47178083  0.98865829  0.62940552     0.28400
H1587       H  0.46947615  0.90645936  0.67979448     0.19000
H1588       H  0.47867648  0.89587209  0.56300857     0.19000
C1589       C  0.10296706  0.48802086  0.63692355    -0.06800
C1590       C  0.10985618  0.47661207  0.60652317    -0.18000
C1591       C  0.08721335  0.47814314  0.58227480     0.10400
C1592       C  0.05622562  0.48992210  0.58889887    -0.06800
C1593       C  0.04863851  0.49915306  0.62007497    -0.18000
C1594       C  0.07178289  0.49857526  0.64408231     0.10400
S1595       S  0.09925758  0.46778073  0.54228861    -0.33000
S1596       S  0.06043983  0.51221059  0.68312129    -0.33000
H1597       H  0.08257078  0.49357039  0.69985295     0.28400
H1598       H  0.13154680  0.46179737  0.54871405     0.28400
H1599       H  0.13378397  0.46846234  0.60130253     0.19000
H1600       H  0.02503556  0.50813698  0.62534592     0.19000
C1601       C  0.60533695  0.49419800  0.10057130    -0.06800
C1602       C  0.63649784  0.48292461  0.09662911    -0.18000
C1603       C  0.65842332  0.48551456  0.12130681     0.10400
C1604       C  0.64903917  0.50040315  0.14986594    -0.06800
C1605       C  0.61902140  0.51436107  0.15259181    -0.18000
C1606       C  0.59665565  0.51067948  0.12855620     0.10400
S1607       S  0.69716644  0.46768130  0.11588629    -0.33000
S1608       S  0.55611646  0.52349462  0.13558515    -0.33000
H1609       H  0.56051539  0.53533770  0.16648329     0.28400
H1610       H  0.71320558  0.48752274  0.13732718     0.28400
H1611       H  0.64293065  0.47004345  0.07526381     0.19000
H1612       H  0.61223052  0.52555528  0.17477624     0.19000
C1613       C  0.48334270  0.61696993  0.12189362    -0.06800
C1614       C  0.47714172  0.58511481  0.12813458    -0.18000
C1615       C  0.47896523  0.56242748  0.10395243     0.10400
C1616       C  0.48627243  0.57180536  0.07244451    -0.06800
C1617       C  0.49131244  0.60396255  0.06593166    -0.18000
C1618       C  0.49024295  0.62659671  0.09039975     0.10400
S1619       S  0.47417505  0.52116350  0.11404724    -0.33000
S1620       S  0.49917568  0.66708571  0.08015255    -0.33000
H1621       H  0.48304071  0.68129157  0.10578466     0.28400
H1622       H  0.47248124  0.52511293  0.14718004     0.28400
H1623       H  0.47244797  0.57785267  0.15238090     0.19000
H1624       H  0.49730492  0.61123869  0.04195997     0.19000
C1625       C  0.49702299  0.62082900  0.92409587    -0.06800
C1626       C  0.49884029  0.65396812  0.92458973    -0.18000
C1627       C  0.50282844  0.67117176  0.89636091     0.10400
C1628       C  0.50586458  0.65480273  0.86720237    -0.06800
C1629       C  0.50597344  0.62181110  0.86689944    -0.18000
C1630       C  0.50074241  0.60463053  0.89465843     0.10400
S1631       S  0.50168842  0.71382090  0.89888970    -0.33000
S1632       S  0.49675567  0.56234594  0.88979389    -0.33000
H1633       H  0.47024463  0.55900940  0.90970913     0.28400
H1634       H  0.51790558  0.71994424  0.87031047     0.28400
H1635       H  0.49564705  0.66648858  0.94685433     0.19000
H1636       H  0.50769659  0.60935811  0.84441145     0.19000
C1637       C  0.37299502  0.54446725  0.92415456    -0.06800
C1638       C  0.38939078  0.54697896  0.89500881    -0.18000
C1639       C  0.37407642  0.54224966  0.86625569     0.10400
C1640       C  0.34166930  0.53443243  0.86650292    -0.06800
C1641       C  0.32475615  0.53304528  0.89529693    -0.18000
C1642       C  0.34000339  0.53873301  0.92422141     0.10400
S1643       S  0.39743269  0.54535998  0.83026077    -0.33000
S1644       S  0.31629853  0.53862551  0.96000937    -0.33000
H1645       H  0.33804834  0.55530265  0.97893772     0.28400
H1646       H  0.38101296  0.52211316  0.81299064     0.28400
H1647       H  0.41479919  0.55124530  0.89476993     0.19000
H1648       H  0.29950517  0.52787417  0.89515543     0.19000
C1649       C  0.45056558  0.38018217  0.86301717    -0.06800
C1650       C  0.43652231  0.40954172  0.85626190    -0.18000
C1651       C  0.43505414  0.43330138  0.87949887     0.10400
C1652       C  0.44717735  0.42718622  0.91017549    -0.06800
C1653       C  0.45819871  0.39677871  0.91770872    -0.18000
C1654       C  0.45998744  0.37321738  0.89446224     0.10400
S1655       S  0.42144135  0.47243963  0.86877902    -0.33000
S1656       S  0.47574398  0.33516632  0.90604045    -0.33000
H1657       H  0.45783632  0.31754400  0.88412860     0.28400
H1658       H  0.41042662  0.46470970  0.83823318     0.28400
H1659       H  0.42901910  0.41461080  0.83219240     0.19000
H1660       H  0.46756296  0.39210533  0.94122096     0.19000
C1661       C  0.49732480  0.15426466  0.65373970    -0.06800
C1662       C  0.47943620  0.12893181  0.66592703    -0.18000
C1663       C  0.47771646  0.10010012  0.64980436     0.10400
C1664       C  0.49318232  0.09698883  0.62021881    -0.06800
C1665       C  0.51381886  0.12106046  0.60981523    -0.18000
C1666       C  0.51598991  0.14973096  0.62622078     0.10400
S1667       S  0.45215626  0.06977630  0.66578100    -0.33000
S1668       S  0.54058412  0.18033707  0.60923813    -0.33000
H1669       H  0.52007596  0.20565053  0.61679100     0.28400
H1670       H  0.46599935  0.04470925  0.64858920     0.28400
H1671       H  0.46579898  0.13201591  0.68763183     0.19000
H1672       H  0.52592494  0.11871292  0.58713225     0.19000
C1673       C  0.63141587  0.50956940  0.88570636    -0.06800
C1674       C  0.63155136  0.48962378  0.91250578    -0.18000
C1675       C  0.60775651  0.49245587  0.93597952     0.10400
C1676       C  0.58369866  0.51546177  0.93230942    -0.06800
C1677       C  0.58479072  0.53633204  0.90652220    -0.18000
C1678       C  0.60792518  0.53351775  0.88306226     0.10400
S1679       S  0.60693079  0.46601282  0.96964224    -0.33000
S1680       S  0.60402570  0.55817785  0.84804499    -0.33000
H1681       H  0.58322941  0.58082955  0.86133834     0.28400
H1682       H  0.62970909  0.44454322  0.95771811     0.28400
H1683       H  0.64987506  0.47165552  0.91470948     0.19000
H1684       H  0.56563974  0.55324064  0.90334870     0.19000
C1685       C  0.86319017  0.51509090  0.65904952    -0.06800
C1686       C  0.89342778  0.52176459  0.67156622    -0.18000
C1687       C  0.92114743  0.51608471  0.65360513     0.06400
C1688       C  0.91825577  0.50450182  0.62232552    -0.06800
C1689       C  0.88785099  0.49832687  0.61001591    -0.18000
C1690       C  0.86049571  0.50353345  0.62789844     0.10400
S1691       S  0.95914590  0.52277017  0.67206389    -0.33000
S1692       S  0.82271598  0.49471735  0.60982383    -0.33000
H1693       H  0.80697145  0.52134234  0.62254106     0.28400
H1694       H  0.97571937  0.49950417  0.65472883     0.28400
H1695       H  0.89546822  0.53025992  0.69576713     0.19000
H1696       H  0.88547963  0.48921612  0.58604620     0.19000
C1697       C  0.31584881  0.43890694  0.21805318    -0.06800
C1698       C  0.28322805  0.43675834  0.21229932    -0.18000
C1699       C  0.26816032  0.40747806  0.21118355     0.10400
C1700       C  0.28606841  0.37968847  0.21790143    -0.06800
C1701       C  0.31776551  0.38265951  0.22823738    -0.18000
C1702       C  0.33289353  0.41207695  0.22808304     0.10400
S1703       S  0.22772548  0.40670692  0.19638600    -0.33000
S1704       S  0.37446787  0.41502641  0.23828555    -0.33000
H1705       H  0.37685505  0.38502069  0.25268562     0.28400
H1706       H  0.22085615  0.43903849  0.20094707     0.28400
H1707       H  0.27049428  0.45750540  0.20417178     0.19000
H1708       H  0.33126022  0.36175670  0.23476798     0.19000
C1709       C  0.37598182  0.47109179  0.12704303    -0.06800
C1710       C  0.35983328  0.46677540  0.09824348    -0.18000
C1711       C  0.37646710  0.45794160  0.07065511     0.10400
C1712       C  0.40976882  0.45430119  0.07201467    -0.06800
C1713       C  0.42536793  0.45727422  0.10139356    -0.18000
C1714       C  0.40878732  0.46518799  0.12889061     0.10400
S1715       S  0.35559712  0.45259790  0.03363684    -0.33000
S1716       S  0.43088403  0.46831877  0.16545434    -0.33000
H1717       H  0.41340007  0.49390823  0.17800071     0.28400
H1718       H  0.32552473  0.46242961  0.04474837     0.28400
H1719       H  0.33431411  0.47041080  0.09747436     0.19000
H1720       H  0.45104577  0.45541879  0.10264076     0.19000
C1721       C  0.22854623  0.43965426  0.29263214    -0.06800
C1722       C  0.25519687  0.42326676  0.30477931    -0.18000
C1723       C  0.25886237  0.38984786  0.30123113     0.10400
C1724       C  0.23454233  0.37133591  0.28655755    -0.06800
C1725       C  0.20849181  0.38820826  0.27393214    -0.18000
C1726       C  0.20560655  0.42137392  0.27624104     0.10400
S1727       S  0.29439379  0.37238702  0.31748832    -0.33000
S1728       S  0.17069097  0.43915237  0.25876385    -0.33000
H1729       H  0.18508079  0.46849433  0.25225610     0.28400
H1730       H  0.30212876  0.35588451  0.28949563     0.28400
H1731       H  0.27269683  0.43632795  0.31827061     0.19000
H1732       H  0.18975035  0.37544377  0.26190003     0.19000
C1733       C  0.08761954  0.50453587  0.38040856    -0.06800
C1734       C  0.11086526  0.48304941  0.39112319    -0.18000
C1735       C  0.14026776  0.48010405  0.37557605     0.10400
C1736       C  0.14675432  0.49905675  0.34868216    -0.06800
C1737       C  0.12264383  0.51883093  0.33669562    -0.18000
C1738       C  0.09307854  0.52147895  0.35206247     0.10400
S1739       S  0.16946541  0.45405752  0.39296835    -0.33000
S1740       S  0.06319394  0.54835118  0.33689772    -0.33000
H1741       H  0.08151326  0.56064060  0.31174932     0.28400
H1742       H  0.19497406  0.47521409  0.38910554     0.28400
H1743       H  0.10721291  0.47034747  0.41315233     0.19000
H1744       H  0.12727186  0.53269408  0.31554066     0.19000
C1745       C  0.43320250  0.27946490  0.23979688    -0.06800
C1746       C  0.41740660  0.29513407  0.26487630    -0.18000
C1747       C  0.38392523  0.29311296  0.26904162     0.10400
C1748       C  0.36502347  0.27570373  0.24712733    -0.06800
C1749       C  0.38131058  0.25963865  0.22252246    -0.18000
C1750       C  0.41461662  0.26124616  0.21875728     0.10400
S1751       S  0.36683419  0.31491228  0.30164633    -0.33000
S1752       S  0.43334374  0.24089261  0.18578228    -0.33000
H1753       H  0.40627212  0.22431811  0.17553644     0.28400
H1754       H  0.35171466  0.28822595  0.31466155     0.28400
H1755       H  0.43104678  0.31014956  0.28059327     0.19000
H1756       H  0.36780170  0.24587710  0.20563663     0.19000
C1757       C  0.49794078  0.33287647  0.16026776    -0.06800
C1758       C  0.51864439  0.32271860  0.13605158    -0.18000
C1759       C  0.52140877  0.33945691  0.10747613     0.10400
C1760       C  0.50376376  0.36767410  0.10302418    -0.06800
C1761       C  0.48234687  0.37740120  0.12685909    -0.18000
C1762       C  0.47895964  0.36017065  0.15522780     0.10400
S1763       S  0.54982744  0.32500436  0.07862418    -0.33000
S1764       S  0.45264590  0.37519786  0.18582364    -0.33000
H1765       H  0.43582985  0.39641407  0.16626629     0.28400
H1766       H  0.53569300  0.33934254  0.05200464     0.28400
H1767       H  0.53293030  0.30156032  0.13944895     0.19000
H1768       H  0.46971148  0.39960841  0.12413422     0.19000
C1769       C  0.43464324  0.21595948  0.32330617    -0.06800
C1770       C  0.43195786  0.20371170  0.29257472    -0.18000
C1771       C  0.40212854  0.19934072  0.27875919     0.10400
C1772       C  0.37448726  0.20829927  0.29608820    -0.06800
C1773       C  0.37781885  0.22379811  0.32542480    -0.18000
C1774       C  0.40762737  0.22797010  0.33900344     0.10400
S1775       S  0.40031274  0.17890891  0.24098900    -0.33000
S1776       S  0.40973839  0.24723690  0.37716432    -0.33000
H1777       H  0.44235105  0.25448949  0.37535603     0.28400
H1778       H  0.43284238  0.18123328  0.23331542     0.28400
H1779       H  0.45295331  0.19418030  0.28093650     0.19000
H1780       H  0.35702903  0.23222763  0.33825017     0.19000
C1781       C  0.47574551  0.13899962  0.39605883    -0.06800
C1782       C  0.45649210  0.11521719  0.38301416    -0.18000
C1783       C  0.45399049  0.08550569  0.39746105     0.10400
C1784       C  0.47034531  0.07993997  0.42613456    -0.06800
C1785       C  0.48840281  0.10443742  0.43981024    -0.18000
C1786       C  0.49189557  0.13356997  0.42463969     0.10400
S1787       S  0.43061458  0.05584609  0.37735444    -0.33000
S1788       S  0.51650851  0.16379427  0.44216989    -0.33000
H1789       H  0.53288787  0.14326334  0.46275640     0.28400
H1790       H  0.44013845  0.02926549  0.39498379     0.28400
H1791       H  0.44459141  0.11929933  0.36055827     0.19000
H1792       H  0.50005494  0.10051776  0.46240486     0.19000
C1793       C  0.22528329  0.87073834  0.25690730    -0.06800
C1794       C  0.24556824  0.88823413  0.27711415    -0.18000
C1795       C  0.24189091  0.92117751  0.28246184     0.10400
C1796       C  0.21710233  0.93857800  0.26765800    -0.06800
C1797       C  0.19726197  0.92147302  0.24672387    -0.18000
C1798       C  0.20089620  0.88828016  0.24135575     0.10400
S1799       S  0.26839405  0.93929355  0.31069658    -0.33000
S1800       S  0.17157669  0.86935278  0.21681518    -0.33000
H1801       H  0.16787613  0.84274087  0.23654454     0.28400
H1802       H  0.26510748  0.97035139  0.29914467     0.28400
H1803       H  0.26443523  0.87597609  0.28962238     0.19000
H1804       H  0.17707346  0.93358709  0.23627461     0.19000
C1805       C  0.32135535  0.87899717  0.20711244    -0.06800
C1806       C  0.29637930  0.90046742  0.20276133    -0.18000
C1807       C  0.30249114  0.93177799  0.19426638     0.10400
C1808       C  0.33448409  0.94229013  0.19195419    -0.06800
C1809       C  0.35925873  0.92001302  0.19390922    -0.18000
C1810       C  0.35302033  0.88851722  0.20159295     0.10400
S1811       S  0.26839405  0.95654844  0.18601085    -0.33000
S1812       S  0.38660516  0.86221764  0.20640381    -0.33000
H1813       H  0.37479199  0.84705294  0.23369142     0.28400
H1814       H  0.28354965  0.97365941  0.16159617     0.28400
H1815       H  0.27199892  0.89277107  0.20603972     0.19000
H1816       H  0.38380429  0.92750410  0.19165629     0.19000
C1817       C  0.14034502  0.72856806  0.20931053    -0.06800
C1818       C  0.12828773  0.70058567  0.22347965    -0.18000
C1819       C  0.09711673  0.69033708  0.21900167     0.10400
C1820       C  0.07659141  0.70734316  0.19887065    -0.06800
C1821       C  0.08775788  0.73575119  0.18516939    -0.18000
C1822       C  0.11922216  0.74662492  0.19041554     0.10400
S1823       S  0.08511883  0.65451741  0.23913977    -0.33000
S1824       S  0.13140904  0.78274139  0.17149316    -0.33000
H1825       H  0.15861902  0.76895247  0.15751987     0.28400
H1826       H  0.05291949  0.66310656  0.24228983     0.28400
H1827       H  0.14315139  0.68618552  0.23876237     0.19000
H1828       H  0.07244292  0.74872918  0.16908846     0.19000
C1829       C  0.05377232  0.79612623  0.29390705    -0.06800
C1830       C  0.07563991  0.81929293  0.30400135    -0.18000
C1831       C  0.10873556  0.81470539  0.30175200     0.10400
C1832       C  0.12089826  0.78619583  0.28874898    -0.06800
C1833       C  0.09874442  0.76411679  0.27667889    -0.18000
C1834       C  0.06577591  0.76841460  0.27956387     0.10400
S1835       S  0.13359981  0.84449430  0.31937494    -0.33000
S1836       S  0.04064144  0.73581828  0.26847229    -0.33000
H1837       H  0.02568589  0.73430878  0.29837503     0.28400
H1838       H  0.15158957  0.84922633  0.29158773     0.28400
H1839       H  0.06684150  0.84067851  0.31532190     0.19000
H1840       H  0.10703604  0.74193258  0.26696117     0.19000
C1841       C  0.28193484  0.79106316  0.13073552    -0.06800
C1842       C  0.25778085  0.80083503  0.10965307    -0.18000
C1843       C  0.26488117  0.81090166  0.07842098     0.10400
C1844       C  0.29679531  0.81061205  0.06752233    -0.06800
C1845       C  0.32062684  0.80041801  0.08832608    -0.18000
C1846       C  0.31395573  0.79104342  0.11950389     0.10400
S1847       S  0.23249083  0.82507478  0.05431192    -0.33000
S1848       S  0.34747837  0.77996655  0.14420045    -0.33000
H1849       H  0.37179147  0.79208415  0.12467323     0.28400
H1850       H  0.25006970  0.84903149  0.03916693     0.28400
H1851       H  0.23322476  0.80091302  0.11760082     0.19000
H1852       H  0.34504437  0.80004236  0.07998965     0.19000
C1853       C  0.19416139  0.71399297  0.04923438    -0.06800
C1854       C  0.17397505  0.70419485  0.07404687    -0.18000
C1855       C  0.18448954  0.70215285  0.10550039     0.10400
C1856       C  0.21641006  0.71013948  0.11258035    -0.06800
C1857       C  0.23560856  0.72269496  0.08807302    -0.18000
C1858       C  0.22493966  0.72478646  0.05667368     0.10400
S1859       S  0.15656102  0.68883731  0.13543972    -0.33000
S1860       S  0.25162346  0.73984010  0.02662722    -0.33000
H1861       H  0.27914850  0.74146198  0.04548175     0.28400
H1862       H  0.13280190  0.67833862  0.11462054     0.28400
H1863       H  0.14989061  0.69709873  0.06848402     0.19000
H1864       H  0.25958170  0.73029785  0.09328180     0.19000
C1865       C  0.37348616  0.70227526  0.22740436    -0.06800
C1866       C  0.39347498  0.72199619  0.20919052    -0.18000
C1867       C  0.42358044  0.71210464  0.19865106     0.10400
C1868       C  0.43480219  0.68154486  0.20637048    -0.06800
C1869       C  0.41565460  0.66208629  0.22569239    -0.18000
C1870       C  0.38529987  0.67207282  0.23635866     0.10400
S1871       S  0.44579940  0.73933455  0.17417168    -0.33000
S1872       S  0.36215734  0.64423956  0.25912641    -0.33000
H1873       H  0.33313900  0.65100664  0.24409150     0.28400
H1874       H  0.45947356  0.71652608  0.15395820     0.28400
H1875       H  0.38511461  0.74519245  0.20198988     0.19000
H1876       H  0.42385373  0.63841068  0.23144414     0.19000
C1877       C  0.39459263  0.78838162  0.28691480    -0.06800
C1878       C  0.42058382  0.78783741  0.26553495    -0.18000
C1879       C  0.45212113  0.78791723  0.27608994     0.10400
C1880       C  0.45850534  0.78773995  0.30890927    -0.06800
C1881       C  0.43290027  0.78776161  0.33043710    -0.18000
C1882       C  0.40121702  0.78752039  0.31991495     0.10400
S1883       S  0.48308376  0.79069936  0.24643875    -0.33000
S1884       S  0.37069168  0.78505567  0.34984494    -0.33000
H1885       H  0.35468079  0.76051393  0.33402470     0.28400
H1886       H  0.50213884  0.81217352  0.26332613     0.28400
H1887       H  0.41648466  0.78867329  0.24014691     0.19000
H1888       H  0.43766534  0.78799750  0.35573325     0.19000
C1889       C  0.24028437  0.62985540  0.28515437    -0.06800
C1890       C  0.26498467  0.60680800  0.28400847    -0.18000
C1891       C  0.25928306  0.57383246  0.28976116     0.10400
C1892       C  0.22794342  0.56268468  0.29609547    -0.06800
C1893       C  0.20360848  0.58598729  0.29640968    -0.18000
C1894       C  0.20923222  0.61858728  0.29190438     0.10400
S1895       S  0.29302909  0.54752367  0.28961852    -0.33000
S1896       S  0.17595937  0.64565595  0.29637363    -0.33000
H1897       H  0.15355796  0.62380346  0.30795544     0.28400
H1898       H  0.28304904  0.53047844  0.31655367     0.28400
H1899       H  0.28896170  0.61446550  0.27855313     0.19000
H1900       H  0.17932791  0.57869557  0.30067739     0.19000
C1901       C  0.29649238  0.61401403  0.19248718    -0.06800
C1902       C  0.27653773  0.58879779  0.20141810    -0.18000
C1903       C  0.28641098  0.55741147  0.19900968     0.10400
C1904       C  0.31751037  0.55052451  0.18826681    -0.06800
C1905       C  0.33769220  0.57542154  0.17954228    -0.18000
C1906       C  0.32767248  0.60703884  0.18120312     0.10400
S1907       S  0.25725756  0.52749267  0.20799391    -0.33000
S1908       S  0.35506788  0.63730216  0.16779783    -0.33000
H1909       H  0.38210370  0.61787300  0.16407604     0.28400
H1910       H  0.26424121  0.50958431  0.18062947     0.28400
H1911       H  0.25251266  0.59332065  0.20974723     0.19000
H1912       H  0.36146355  0.56993869  0.17111845     0.19000
C1913       C  0.28851400  0.76830061  0.36304055    -0.06800
C1914       C  0.30264286  0.74501075  0.38243212    -0.18000
C1915       C  0.30600962  0.74951574  0.41542737     0.10400
C1916       C  0.29447495  0.77761877  0.42970568    -0.06800
C1917       C  0.27902649  0.80001693  0.41082405    -0.18000
C1918       C  0.27640745  0.79622414  0.37802841     0.10400
S1919       S  0.32690711  0.71949297  0.43759030    -0.33000
S1920       S  0.25862859  0.82925565  0.35730421    -0.33000
H1921       H  0.28585164  0.83448604  0.33843592     0.28400
H1922       H  0.31266293  0.72614632  0.46708148     0.28400
H1923       H  0.31177005  0.72344005  0.37178731     0.19000
H1924       H  0.27076977  0.82193826  0.42155341     0.19000
C1925       C  0.20922855  0.72189447  0.38245595    -0.06800
C1926       C  0.22413936  0.69405699  0.39299596    -0.18000
C1927       C  0.22667409  0.68741332  0.42551017     0.10400
C1928       C  0.21403931  0.70883111  0.44805997    -0.06800
C1929       C  0.20023452  0.73712642  0.43766262    -0.18000
C1930       C  0.19712136  0.74365023  0.40528826     0.10400
S1931       S  0.24553310  0.65084259  0.43712801    -0.33000
S1932       S  0.17501269  0.77894016  0.39491194    -0.33000
H1933       H  0.15949483  0.76530532  0.36869537     0.28400
H1934       H  0.25589244  0.66196707  0.46685577     0.28400
H1935       H  0.23421011  0.67760858  0.37589528     0.19000
H1936       H  0.18930949  0.75298591  0.45482544     0.19000
C1937       C  0.86493926  0.24673307  0.24149711    -0.06800
C1938       C  0.87900362  0.27461421  0.25337096    -0.18000
C1939       C  0.91136650  0.28194229  0.24862240     0.10400
C1940       C  0.93145567  0.26189349  0.23036638    -0.06800
C1941       C  0.91812901  0.23321617  0.21949957    -0.18000
C1942       C  0.88576853  0.22504027  0.22569810     0.10400
S1943       S  0.92540894  0.31829914  0.26595337    -0.33000
S1944       S  0.87263273  0.18674486  0.21254967    -0.33000
H1945       H  0.85803635  0.17926291  0.24174174     0.28400
H1946       H  0.95749443  0.30893303  0.26813301     0.28400
H1947       H  0.86455405  0.29139031  0.26657783     0.19000
H1948       H  0.93270524  0.21743468  0.20524468     0.19000
C1949       C  0.87428359  0.19910294  0.33116969    -0.06800
C1950       C  0.89873440  0.22044501  0.32333483    -0.18000
C1951       C  0.93063120  0.21260116  0.32745105     0.10400
C1952       C  0.93854069  0.18197482  0.33818722    -0.06800
C1953       C  0.91436149  0.16073917  0.34657591    -0.18000
C1954       C  0.88230656  0.16902114  0.34378860     0.10400
S1955       S  0.96040446  0.24276240  0.32071713    -0.33000
S1956       S  0.85269585  0.14132234  0.35800171    -0.33000
H1957       H  0.87343434  0.11625810  0.36567516     0.28400
H1958       H  0.93947636  0.26883005  0.31997539     0.28400
H1959       H  0.89296520  0.24369746  0.31417990     0.19000
H1960       H  0.92069981  0.13752863  0.35553513     0.19000
C1961       C  0.80469110  0.05344560  0.31182765    -0.06800
C1962       C  0.80627259  0.06262253  0.27968324    -0.18000
C1963       C  0.79763924  0.09350278  0.26976897     0.10400
C1964       C  0.78692086  0.11615520  0.29238166    -0.06800
C1965       C  0.78540453  0.10660957  0.32445564    -0.18000
C1966       C  0.79384995  0.07603150  0.33428582     0.10400
S1967       S  0.80077994  0.10222470  0.22805934    -0.33000
S1968       S  0.78938003  0.06736692  0.37606744    -0.33000
H1969       H  0.78013291  0.03567520  0.37175690     0.28400
H1970       H  0.77057857  0.11644726  0.22635583     0.28400
H1971       H  0.81488248  0.04579606  0.26219039     0.19000
H1972       H  0.77724033  0.12317244  0.34242088     0.19000
C1973       C  0.70747625  0.03186050  0.20626335    -0.06800
C1974       C  0.71386926  0.03737094  0.23826590    -0.18000
C1975       C  0.71285761  0.06810927  0.25100811     0.10400
C1976       C  0.70608628  0.09454393  0.23076863    -0.06800
C1977       C  0.70285214  0.08888049  0.19802401    -0.18000
C1978       C  0.70346678  0.05807146  0.18569486     0.10400
S1979       S  0.71736218  0.07164356  0.29366057    -0.33000
S1980       S  0.69714671  0.05343473  0.14356764    -0.33000
H1981       H  0.71274920  0.02396783  0.14122771     0.28400
H1982       H  0.72719555  0.04038391  0.29991791     0.28400
H1983       H  0.71641002  0.01717320  0.25392506     0.19000
H1984       H  0.69867817  0.10844753  0.18188812     0.19000
C1985       C  0.71126870  0.19222868  0.08648187    -0.06800
C1986       C  0.73342576  0.17110018  0.10015921    -0.18000
C1987       C  0.74341739  0.17452306  0.13205451     0.10400
C1988       C  0.73034908  0.19903281  0.15091233    -0.06800
C1989       C  0.70906303  0.22055817  0.13630705    -0.18000
C1990       C  0.70023808  0.21793982  0.10460536     0.10400
S1991       S  0.77085088  0.14585524  0.14785053    -0.33000
S1992       S  0.67317251  0.24731055  0.08900028    -0.33000
H1993       H  0.68627367  0.24714647  0.05823580     0.28400
H1994       H  0.75313766  0.14073121  0.17575730     0.28400
H1995       H  0.74163913  0.15089141  0.08651721     0.19000
H1996       H  0.69848986  0.23974833  0.14982048     0.19000
C1997       C  0.79582759  0.26676406  0.07017637    -0.06800
C1998       C  0.81573278  0.25314072  0.09331299    -0.18000
C1999       C  0.80819142  0.25466768  0.12583819     0.10400
C2000       C  0.78024048  0.27066943  0.13582389    -0.06800
C2001       C  0.75981495  0.28302025  0.11238754    -0.18000
C2002       C  0.76751109  0.28185081  0.08013892     0.10400
S2003       S  0.83526863  0.23599828  0.15307284    -0.33000
S2004       S  0.74184141  0.30335658  0.05344600    -0.33000
H2005       H  0.76631264  0.31905508  0.03700558     0.28400
H2006       H  0.81096998  0.22188787  0.17116223     0.28400
H2007       H  0.83819453  0.24262745  0.08606290     0.19000
H2008       H  0.73819672  0.29535576  0.11927593     0.19000
C2009       C  0.55434698  0.27084890  0.24112754    -0.06800
C2010       C  0.56850321  0.28254623  0.26905085    -0.18000
C2011       C  0.60123186  0.27738727  0.27594402     0.10400
C2012       C  0.62142671  0.26145319  0.25375704    -0.06800
C2013       C  0.60649038  0.24834563  0.22679804    -0.18000
C2014       C  0.57374239  0.25234981  0.22063574     0.10400
S2015       S  0.61565245  0.29231269  0.31319754    -0.33000
S2016       S  0.55821527  0.23365774  0.18539948    -0.33000
H2017       H  0.52632443  0.23251487  0.19558842     0.28400
H2018       H  0.62941377  0.26318878  0.32205984     0.28400
H2019       H  0.55425322  0.29677729  0.28516159     0.19000
H2020       H  0.62051421  0.23480052  0.20991521     0.19000
C2021       C  0.54848571  0.19672491  0.32984202    -0.06800
C2022       C  0.55157079  0.18677502  0.29825470    -0.18000
C2023       C  0.58151247  0.18051654  0.28507085     0.10400
C2024       C  0.60898707  0.18511162  0.30396866    -0.06800
C2025       C  0.60562608  0.19594853  0.33534449    -0.18000
C2026       C  0.57574111  0.20176258  0.34842124     0.10400
S2027       S  0.58367033  0.16424960  0.24527995    -0.33000
S2028       S  0.57391277  0.21543950  0.38897510    -0.33000
H2029       H  0.54482784  0.23174907  0.38592679     0.28400
H2030       H  0.55106585  0.16648070  0.23809182     0.28400
H2031       H  0.53030787  0.18203741  0.28459665     0.19000
H2032       H  0.62645572  0.20037497  0.34978747     0.19000
C2033       C  0.75282691  0.35020360  0.29973834    -0.06800
C2034       C  0.77338616  0.36633334  0.27874589    -0.18000
C2035       C  0.77881072  0.39886731  0.28111961     0.10400
C2036       C  0.76533952  0.41624862  0.30633527    -0.06800
C2037       C  0.74396468  0.40069581  0.32689651    -0.18000
C2038       C  0.73687019  0.36823792  0.32331928     0.10400
S2039       S  0.80610644  0.41645513  0.25327924    -0.33000
S2040       S  0.71039610  0.35053622  0.35181653    -0.33000
H2041       H  0.68970814  0.33900569  0.32831053     0.28400
H2042       H  0.78860688  0.44477945  0.25130938     0.28400
H2043       H  0.78627211  0.35340264  0.26057746     0.19000
H2044       H  0.73432326  0.41342012  0.34713915     0.19000
C2045       C  0.71226525  0.36636298  0.22052523    -0.06800
C2046       C  0.68649891  0.37786528  0.23852310    -0.18000
C2047       C  0.68030074  0.41052132  0.24070014     0.10400
C2048       C  0.70076786  0.43219793  0.22530722    -0.06800
C2049       C  0.72676445  0.42072901  0.20794772    -0.18000
C2050       C  0.73236115  0.38824000  0.20470173     0.10400
S2051       S  0.64529976  0.42293681  0.26236115    -0.33000
S2052       S  0.76363963  0.37517890  0.17793439    -0.33000
H2053       H  0.77500279  0.40529965  0.16938248     0.28400
H2054       H  0.65409689  0.45477230  0.26626174     0.28400
H2055       H  0.67125159  0.36138847  0.25107874     0.19000
H2056       H  0.74132717  0.43739674  0.19485804     0.19000
C2057       C  0.67733925  0.19725613  0.44859797    -0.06800
C2058       C  0.68430175  0.17277211  0.42708013    -0.18000
C2059       C  0.69317649  0.17867033  0.39549878     0.10400
C2060       C  0.69563818  0.21039339  0.38433282    -0.06800
C2061       C  0.68843237  0.23509213  0.40575478    -0.18000
C2062       C  0.67974058  0.22888231  0.43763819     0.10400
S2063       S  0.70054005  0.14474821  0.37005898    -0.33000
S2064       S  0.67075264  0.26211160  0.46280215    -0.33000
H2065       H  0.69543037  0.25490013  0.48416148     0.28400
H2066       H  0.68865022  0.12124055  0.39053303     0.28400
H2067       H  0.68274932  0.14849203  0.43518071     0.19000
H2068       H  0.69035783  0.25944026  0.39788147     0.19000
C2069       C  0.77460105  0.27107157  0.40736082    -0.06800
C2070       C  0.77522974  0.30394810  0.41249503    -0.18000
C2071       C  0.77324532  0.31670610  0.44313865     0.10400
C2072       C  0.77147541  0.29649254  0.46981479    -0.06800
C2073       C  0.76803919  0.26397840  0.46491675    -0.18000
C2074       C  0.76934371  0.25088806  0.43421974     0.10400
S2075       S  0.77348080  0.35919048  0.44688999    -0.33000
S2076       S  0.76628242  0.20819198  0.43118431    -0.33000
H2077       H  0.75403427  0.20265152  0.46183869     0.28400
H2078       H  0.75664760  0.36009413  0.47583514     0.28400
H2079       H  0.77772718  0.32000497  0.39256343     0.19000
H2080       H  0.76675426  0.24853804  0.48541179     0.19000
C2081       C  0.11544963  0.79467194  0.73543143    -0.06800
C2082       C  0.10001940  0.81793510  0.75374055    -0.18000
C2083       C  0.06918839  0.82841529  0.74601479     0.10400
C2084       C  0.05290136  0.81453724  0.72028528    -0.06800
C2085       C  0.06707496  0.78959097  0.70381203    -0.18000
C2086       C  0.09792377  0.77948911  0.71065957     0.10400
S2087       S  0.05305223  0.86131126  0.76798855    -0.33000
S2088       S  0.11328102  0.74663399  0.68731095    -0.33000
H2089       H  0.08491473  0.73822690  0.67186931     0.28400
H2090       H  0.02096745  0.85378040  0.76260251     0.28400
H2091       H  0.11270592  0.82943539  0.77287780     0.19000
H2092       H  0.05439225  0.77924247  0.68400968     0.19000
C2093       C  0.09966207  0.71180525  0.79273006    -0.06800
C2094       C  0.07588443  0.72659805  0.77441585    -0.18000
C2095       C  0.04384724  0.72685355  0.78341692     0.10400
C2096       C  0.03420546  0.71062654  0.81106479    -0.06800
C2097       C  0.05800870  0.69730239  0.83056429    -0.18000
C2098       C  0.09037491  0.69779500  0.82191136     0.10400
S2099       S  0.01642090  0.74641906  0.75720821    -0.33000
S2100       S  0.11787994  0.67820886  0.84819963    -0.33000
H2101       H  0.13130894  0.65930463  0.82404825     0.28400
H2102       H  0.00673733  0.76817789  0.78070447     0.28400
H2103       H  0.08207162  0.73763331  0.75225502     0.19000
H2104       H  0.05118803  0.68500096  0.85212858     0.19000
C2105       C  0.35058018  0.77470211  0.71084724    -0.06800
C2106       C  0.36163016  0.80502037  0.71958670    -0.18000
C2107       C  0.39301429  0.81394578  0.71554053     0.10400
C2108       C  0.41448766  0.79308585  0.70067352    -0.06800
C2109       C  0.40450914  0.76223512  0.69304499    -0.18000
C2110       C  0.37278222  0.75266579  0.69830579     0.10400
S2111       S  0.40425969  0.85255198  0.73014555    -0.33000
S2112       S  0.36251627  0.71238283  0.68896538    -0.33000
H2113       H  0.33591285  0.72021098  0.67042762     0.28400
H2114       H  0.43568664  0.84383402  0.73776465     0.28400
H2115       H  0.34583529  0.82239139  0.73026831     0.19000
H2116       H  0.42108364  0.74602206  0.68175679     0.19000
C2117       C  0.43715284  0.70291731  0.78883962    -0.06800
C2118       C  0.43016130  0.73524310  0.78953587    -0.18000
C2119       C  0.39878489  0.74616403  0.79236275     0.10400
C2120       C  0.37290616  0.72427343  0.79258759    -0.06800
C2121       C  0.38011843  0.69180984  0.79007208    -0.18000
C2122       C  0.41175893  0.68101010  0.78840704     0.10400
S2123       S  0.39454021  0.78818557  0.79906125    -0.33000
S2124       S  0.41841494  0.63885003  0.78615595    -0.33000
H2125       H  0.44785213  0.64090226  0.77025290     0.28400
H2126       H  0.37467747  0.78442736  0.82580568     0.28400
H2127       H  0.44950013  0.75211309  0.79099946     0.19000
H2128       H  0.36104840  0.67461432  0.78962135     0.19000
C2129       C  0.20244858  0.74513233  0.86721378    -0.06800
C2130       C  0.22443947  0.72628412  0.88388021    -0.18000
C2131       C  0.22103257  0.72025360  0.91613910     0.10400
C2132       C  0.19461714  0.73271939  0.93253367    -0.06800
C2133       C  0.17323813  0.75276082  0.91655715    -0.18000
C2134       C  0.17673348  0.75897570  0.88398703     0.10400
S2135       S  0.24905979  0.69314472  0.93397941    -0.33000
S2136       S  0.14564806  0.78127518  0.86473500    -0.33000
H2137       H  0.14304763  0.76047076  0.83876346     0.28400
H2138       H  0.24601505  0.70495743  0.96497544     0.28400
H2139       H  0.24406285  0.71500426  0.87148982     0.19000
H2140       H  0.15214439  0.76124537  0.92883772     0.19000
C2141       C  0.28742437  0.79602759  0.88389842    -0.06800
C2142       C  0.29245528  0.77288198  0.90758577    -0.18000
C2143       C  0.29762679  0.78096911  0.93934527     0.10400
C2144       C  0.29680264  0.81304430  0.94850222    -0.06800
C2145       C  0.29035981  0.83620624  0.92534142    -0.18000
C2146       C  0.28535931  0.82816856  0.89330687     0.10400
S2147       S  0.30819416  0.74933319  0.96609376    -0.33000
S2148       S  0.27634051  0.85937039  0.86531734    -0.33000
H2149       H  0.26809257  0.88252739  0.88796675     0.28400
H2150       H  0.33146605  0.76627393  0.98283801     0.28400
H2151       H  0.29408835  0.74807719  0.90118659     0.19000
H2152       H  0.29021513  0.86090706  0.93230467     0.19000
C2153       C  0.25260951  0.87650284  0.78320073    -0.06800
C2154       C  0.28156451  0.88886885  0.77173482    -0.18000
C2155       C  0.29037328  0.92022434  0.77670415     0.10400
C2156       C  0.27083509  0.94045159  0.79506276    -0.06800
C2157       C  0.24118728  0.92906951  0.80563009    -0.18000
C2158       C  0.23160050  0.89757642  0.79931541     0.10400
S2159       S  0.32754515  0.93285789  0.75915515    -0.33000
S2160       S  0.19285354  0.88570329  0.81295821    -0.33000
H2161       H  0.18408782  0.87288881  0.78339300     0.28400
H2162       H  0.31841365  0.96469787  0.75506761     0.28400
H2163       H  0.29792611  0.87398938  0.75844741     0.19000
H2164       H  0.22590978  0.94437098  0.81968841     0.19000
C2165       C  0.19784232  0.89493217  0.70946555    -0.06800
C2166       C  0.22127357  0.91847654  0.71450166    -0.18000
C2167       C  0.21353490  0.95073029  0.71718810     0.10400
C2168       C  0.18161417  0.96050358  0.71405367    -0.06800
C2169       C  0.15804636  0.93709122  0.71102565    -0.18000
C2170       C  0.16561905  0.90477355  0.70927980     0.10400
S2171       S  0.24570205  0.97842996  0.72136699    -0.33000
S2172       S  0.13292153  0.87772117  0.70645343    -0.33000
H2173       H  0.14381727  0.86062200  0.73292835     0.28400
H2174       H  0.23136235  0.99426906  0.74711700     0.28400
H2175       H  0.24620737  0.91201794  0.71564541     0.19000
H2176       H  0.13332812  0.94420853  0.70879224     0.19000
C2177       C  0.27140143  0.64121312  0.76614983    -0.06800
C2178       C  0.29656276  0.62697466  0.74913824    -0.18000
C2179       C  0.30547599  0.59526022  0.75467152     0.10400
C2180       C  0.28721349  0.57632780  0.77553936    -0.06800
C2181       C  0.26103918  0.58991300  0.79097196    -0.18000
C2182       C  0.25395207  0.62219958  0.78808383     0.10400
S2183       S  0.34205090  0.58131600  0.73691362    -0.33000
S2184       S  0.22490495  0.63845076  0.81561636    -0.33000
H2185       H  0.21120881  0.60963189  0.82521818     0.28400
H2186       H  0.33565001  0.54881579  0.74006433     0.28400
H2187       H  0.31073692  0.64119431  0.73303670     0.19000
H2188       H  0.24837672  0.57584159  0.80841681     0.19000
C2189       C  0.17298432  0.55715566  0.69815791    -0.06800
C2190       C  0.17536273  0.58100495  0.67492889    -0.18000
C2191       C  0.18075585  0.61285077  0.68303551     0.10400
C2192       C  0.18316202  0.62176005  0.71548614    -0.06800
C2193       C  0.18144247  0.59753723  0.73856141    -0.18000
C2194       C  0.17588916  0.56583327  0.73038177     0.10400
S2195       S  0.18473728  0.64048121  0.65061617    -0.33000
S2196       S  0.16964090  0.53831175  0.76247422    -0.33000
H2197       H  0.14479647  0.52170705  0.74768920     0.28400
H2198       H  0.21220671  0.65472164  0.66314059     0.28400
H2199       H  0.17303259  0.57472326  0.65007432     0.19000
H2200       H  0.18282386  0.60341457  0.76356176     0.19000
C2201       C  0.21842285  0.71318768  0.56587902    -0.06800
C2202       C  0.19678683  0.73422415  0.57979371    -0.18000
C2203       C  0.19663899  0.73996006  0.61251008     0.10400
C2204       C  0.21944171  0.72454553  0.63218802    -0.06800
C2205       C  0.24242749  0.70486775  0.61762713    -0.18000
C2206       C  0.24196788  0.69891922  0.58484112     0.10400
S2207       S  0.16620405  0.76630642  0.62786269    -0.33000
S2208       S  0.27045221  0.67118203  0.56878801    -0.33000
H2209       H  0.27046588  0.68393288  0.53791793     0.28400
H2210       H  0.15430343  0.77715309  0.59860826     0.28400
H2211       H  0.17825339  0.74434981  0.56506364     0.19000
H2212       H  0.26037155  0.69323310  0.63195783     0.19000
C2213       C  0.26659898  0.79658808  0.61214672    -0.06800
C2214       C  0.24448443  0.80117908  0.58734712    -0.18000
C2215       C  0.25260914  0.79569063  0.55550774     0.10400
C2216       C  0.28372352  0.78584946  0.54777416    -0.06800
C2217       C  0.30504157  0.77906646  0.57244903    -0.18000
C2218       C  0.29707428  0.78448174  0.60434145     0.10400
S2219       S  0.22315003  0.80403780  0.52568653    -0.33000
S2220       S  0.32693161  0.77714373  0.63406644    -0.33000
H2221       H  0.34894415  0.76119758  0.61446601     0.28400
H2222       H  0.23109143  0.77763368  0.50688903     0.28400
H2223       H  0.22069648  0.80972407  0.59262930     0.19000
H2224       H  0.32911650  0.77198457  0.56636918     0.19000
C2225       C  0.24549865  0.22715139  0.87871506    -0.06800
C2226       C  0.27267100  0.24003316  0.89347448    -0.18000
C2227       C  0.27880074  0.23680668  0.92626605     0.10400
C2228       C  0.25841677  0.21885948  0.94621465    -0.06800
C2229       C  0.23076477  0.20630794  0.93197356    -0.18000
C2230       C  0.22367949  0.21105266  0.89911472     0.10400
S2231       S  0.31426573  0.25558694  0.94114582    -0.33000
S2232       S  0.18680588  0.19526623  0.88461461    -0.33000
H2233       H  0.17699949  0.22432222  0.87138751     0.28400
H2234       H  0.30387843  0.25819366  0.97284355     0.28400
H2235       H  0.28962088  0.25325724  0.87933053     0.19000
H2236       H  0.21501308  0.19182161  0.94624500     0.19000
C2237       C  0.20229154  0.32006938  0.89378461    -0.06800
C2238       C  0.22582105  0.31272995  0.91652474    -0.18000
C2239       C  0.22668167  0.32777573  0.94589132     0.10400
C2240       C  0.20329802  0.35062750  0.95309801    -0.06800
C2241       C  0.17834520  0.35605820  0.93159216    -0.18000
C2242       C  0.17698932  0.34031730  0.90258457     0.10400
S2243       S  0.25914678  0.31794005  0.97214034    -0.33000
S2244       S  0.14238766  0.34725142  0.87834045    -0.33000
H2245       H  0.13843016  0.31497520  0.87095465     0.28400
H2246       H  0.26314944  0.34887485  0.98383254     0.28400
H2247       H  0.24510504  0.29671011  0.91069616     0.19000
H2248       H  0.15910545  0.37206738  0.93772362     0.19000
C2249       C  0.18504898  0.07890763  0.72559611    -0.06800
C2250       C  0.16889637  0.09260223  0.75157318    -0.18000
C2251       C  0.17310442  0.12481258  0.75957803     0.10400
C2252       C  0.19405105  0.14384095  0.74131516    -0.06800
C2253       C  0.21111571  0.12923865  0.71637023    -0.18000
C2254       C  0.20694995  0.09745370  0.70851405     0.10400
S2255       S  0.14924812  0.14064628  0.79143527    -0.33000
S2256       S  0.22875508  0.08233264  0.67471742    -0.33000
H2257       H  0.23080963  0.05101574  0.68594205     0.28400
H2258       H  0.13819686  0.16627637  0.77314346     0.28400
H2259       H  0.15129976  0.07878256  0.76428716     0.19000
H2260       H  0.22776871  0.14281341  0.70219983     0.19000
C2261       C  0.27642993  0.05842824  0.80447428    -0.06800
C2262       C  0.28055974  0.06776214  0.77296382    -0.18000
C2263       C  0.28224669  0.09972117  0.76454043     0.10400
C2264       C  0.27739987  0.12379472  0.78788256    -0.06800
C2265       C  0.27190806  0.11425365  0.81947798    -0.18000
C2266       C  0.27172679  0.08198646  0.82797829     0.10400
S2267       S  0.29407848  0.10724753  0.72398813    -0.33000
S2268       S  0.26590870  0.07214251  0.86926167    -0.33000
H2269       H  0.25346391  0.04177642  0.86363676     0.28400
H2270       H  0.31639399  0.13055344  0.73182745     0.28400
H2271       H  0.28566403  0.04991953  0.75509308     0.19000
H2272       H  0.26787162  0.13194820  0.83771635     0.19000
C2273       C  0.05076592  0.30164582  0.82073242    -0.06800
C2274       C  0.05978115  0.26955325  0.82279518    -0.18000
C2275       C  0.09060401  0.25930019  0.81373042     0.10400
C2276       C  0.11347196  0.28165668  0.80323013    -0.06800
C2277       C  0.10378845  0.31359017  0.80082357    -0.18000
C2278       C  0.07298044  0.32351301  0.80851407     0.10400
S2279       S  0.09889847  0.21755140  0.81534510    -0.33000
S2280       S  0.06320773  0.36450133  0.80090409    -0.33000
H2281       H  0.03122501  0.35892420  0.79288619     0.28400
H2282       H  0.11219139  0.21678956  0.78465544     0.28400
H2283       H  0.04286883  0.25243406  0.83181796     0.19000
H2284       H  0.12027646  0.33133073  0.79221544     0.19000
C2285       C  0.08975980  0.22324762  0.71616381    -0.06800
C2286       C  0.08385198  0.19077653  0.71114445    -0.18000
C2287       C  0.05258869  0.17867033  0.71011963     0.10400
C2288       C  0.02627201  0.19921114  0.71486612    -0.06800
C2289       C  0.03202722  0.23111341  0.72140784    -0.18000
C2290       C  0.06290826  0.24347834  0.72145573     0.10400
S2291       S  0.04657135  0.13679612  0.70354852    -0.33000
S2292       S  0.06526455  0.28578214  0.72663119    -0.33000
H2293       H  0.08065467  0.29040739  0.69722844     0.28400
H2294       H  0.07887862  0.12824791  0.70098862     0.28400
H2295       H  0.10377489  0.17482508  0.70759996     0.19000
H2296       H  0.01202868  0.24712561  0.72461876     0.19000
C2297       C  0.34726212  0.29336019  0.77025169    -0.06800
C2298       C  0.36229931  0.31618873  0.75102608    -0.18000
C2299       C  0.39417030  0.32507801  0.75625841     0.10400
C2300       C  0.41204229  0.31019220  0.78048130    -0.06800
C2301       C  0.39809265  0.28556021  0.79761197    -0.18000
C2302       C  0.36614322  0.27720457  0.79333473     0.10400
S2303       S  0.41018035  0.35681153  0.73255915    -0.33000
S2304       S  0.35029278  0.24747756  0.81996980    -0.33000
H2305       H  0.37958773  0.23310651  0.82752153     0.28400
H2306       H  0.44238834  0.34929675  0.73772484     0.28400
H2307       H  0.34869845  0.32847989  0.73297112     0.19000
H2308       H  0.41153158  0.27477259  0.81672780     0.19000
C2309       C  0.36365530  0.21663888  0.72060437    -0.06800
C2310       C  0.37291370  0.23667208  0.69555622    -0.18000
C2311       C  0.40532941  0.24204890  0.68884849     0.10400
C2312       C  0.42902753  0.22776970  0.70790085    -0.06800
C2313       C  0.41973151  0.20916123  0.73371741    -0.18000
C2314       C  0.38773781  0.20274500  0.73975873     0.10400
S2315       S  0.41524847  0.26662521  0.65528216    -0.33000
S2316       S  0.37974085  0.17456978  0.77104483    -0.33000
H2317       H  0.35230129  0.16200494  0.75712384     0.28400
H2318       H  0.44579623  0.27487096  0.66600348     0.28400
H2319       H  0.35490168  0.24841323  0.68140568     0.19000
H2320       H  0.43775191  0.19704743  0.74761365     0.19000
C2321       C  0.18461160  0.43925238  0.70361945    -0.06800
C2322       C  0.21604475  0.42971243  0.69677876    -0.18000
C2323       C  0.22739190  0.39930845  0.70544535     0.10400
C2324       C  0.20655606  0.37736721  0.72031136    -0.06800
C2325       C  0.17571597  0.38810266  0.72848096    -0.18000
C2326       C  0.16475209  0.41842796  0.72058851     0.10400
S2327       S  0.26839705  0.39016574  0.69688779    -0.33000
S2328       S  0.12495954  0.43039988  0.73225976    -0.33000
H2329       H  0.11602490  0.40192247  0.74710754     0.28400
H2330       H  0.27425929  0.37684532  0.72695464     0.28400
H2331       H  0.23160351  0.44572095  0.68401971     0.19000
H2332       H  0.15956166  0.37240436  0.74080476     0.19000
C2333       C  0.26979858  0.39500620  0.79832958    -0.06800
C2334       C  0.24887407  0.41919062  0.78797444    -0.18000
C2335       C  0.25758757  0.45116938  0.78805435     0.10400
C2336       C  0.28843614  0.45979484  0.79772952    -0.06800
C2337       C  0.30983929  0.43566010  0.80668577    -0.18000
C2338       C  0.30104190  0.40372075  0.80719503     0.10400
S2339       S  0.22728912  0.47968873  0.77817253    -0.33000
S2340       S  0.33048658  0.37594256  0.82111161    -0.33000
H2341       H  0.33030929  0.35886582  0.79246297     0.28400
H2342       H  0.23358644  0.49962085  0.80417671     0.28400
H2343       H  0.22481870  0.41345930  0.78087456     0.19000
H2344       H  0.33365691  0.44184705  0.81426531     0.19000
C2345       C  0.26016275  0.24944588  0.63610224    -0.06800
C2346       C  0.24068477  0.22941103  0.61764048    -0.18000
C2347       C  0.24549124  0.22496504  0.58466192     0.10400
C2348       C  0.27115013  0.23980072  0.56876584    -0.06800
C2349       C  0.29020624  0.26051143  0.58676606    -0.18000
C2350       C  0.28457252  0.26609858  0.61960315     0.10400
S2351       S  0.21892961  0.19849966  0.56427780    -0.33000
S2352       S  0.31117696  0.29275161  0.63951506    -0.33000
H2353       H  0.28655053  0.31294850  0.64983535     0.28400
H2354       H  0.22124323  0.21366494  0.53464077     0.28400
H2355       H  0.22146603  0.21666767  0.62905450     0.19000
H2356       H  0.31049494  0.27159823  0.57542057     0.19000
C2357       C  0.17291097  0.29876194  0.62612695    -0.06800
C2358       C  0.15460131  0.28203987  0.60398138    -0.18000
C2359       C  0.15171855  0.29262275  0.57275174     0.10400
C2360       C  0.16757523  0.32046202  0.56344682    -0.06800
C2361       C  0.18632796  0.33694164  0.58521640    -0.18000
C2362       C  0.18969125  0.32598791  0.61632016     0.10400
S2363       S  0.12836312  0.26903642  0.54575801    -0.33000
S2364       S  0.21757195  0.34623569  0.64136918    -0.33000
H2365       H  0.22822420  0.31880300  0.65695097     0.28400
H2366       H  0.11680414  0.29413015  0.52714891     0.28400
H2367       H  0.14225597  0.26068708  0.61114799     0.19000
H2368       H  0.19906500  0.35794048  0.57768371     0.19000
C2369       C  0.71397973  0.14098926  0.79823421    -0.06800
C2370       C  0.68944381  0.12790933  0.77951149    -0.18000
C2371       C  0.67988246  0.09657827  0.78263067     0.10400
C2372       C  0.69460865  0.07708572  0.80535210    -0.06800
C2373       C  0.71964164  0.08944455  0.82367483    -0.18000
C2374       C  0.72981542  0.12102244  0.81996339     0.10400
S2375       S  0.64697857  0.08361275  0.75844338    -0.33000
S2376       S  0.76107056  0.13516571  0.84519794    -0.33000
H2377       H  0.77949051  0.14615559  0.81949638     0.28400
H2378       H  0.65601568  0.05158779  0.75754558     0.28400
H2379       H  0.67683855  0.14236419  0.76235025     0.19000
H2380       H  0.73033327  0.07486676  0.84196453     0.19000
C2381       C  0.76628425  0.12802784  0.71419358    -0.06800
C2382       C  0.74402513  0.10331320  0.71815115    -0.18000
C2383       C  0.75290455  0.07136970  0.71684224     0.10400
C2384       C  0.78484306  0.06311026  0.71053092    -0.06800
C2385       C  0.80722147  0.08756637  0.70677843    -0.18000
C2386       C  0.79854362  0.11956626  0.70882008     0.10400
S2387       S  0.72181221  0.04247308  0.72074267    -0.33000
S2388       S  0.82996822  0.14796266  0.70399031    -0.33000
H2389       H  0.82337669  0.16156742  0.73373248     0.28400
H2390       H  0.73519967  0.02910301  0.74828130     0.28400
H2391       H  0.71908566  0.10868465  0.72186918     0.19000
H2392       H  0.83188708  0.08168370  0.70179711     0.19000
C2393       C  0.69377112  0.37673466  0.79294693    -0.06800
C2394       C  0.70930545  0.38965434  0.81961587    -0.18000
C2395       C  0.70670889  0.42156193  0.82758500     0.10400
C2396       C  0.68769921  0.44177605  0.80905336    -0.06800
C2397       C  0.67289390  0.42970522  0.78174522    -0.18000
C2398       C  0.67553219  0.39740743  0.77359204     0.10400
S2399       S  0.72810640  0.43509816  0.86208569    -0.33000
S2400       S  0.65395800  0.38403629  0.73929554    -0.33000
H2401       H  0.63988002  0.35839135  0.75534689     0.28400
H2402       H  0.73421586  0.46561942  0.85022840     0.28400
H2403       H  0.72404549  0.37484240  0.83459670     0.19000
H2404       H  0.65795024  0.44515689  0.76758730     0.19000
C2405       C  0.77473897  0.39848876  0.73934353    -0.06800
C2406       C  0.78305506  0.42205705  0.76155178    -0.18000
C2407       C  0.78597326  0.45400442  0.75280131     0.10400
C2408       C  0.78102505  0.46310781  0.72096614    -0.06800
C2409       C  0.77136932  0.44002307  0.69904243    -0.18000
C2410       C  0.76744503  0.40820750  0.70794114     0.10400
S2411       S  0.79913422  0.48156220  0.78257893    -0.33000
S2412       S  0.75268803  0.38151846  0.67814037    -0.33000
H2413       H  0.73251270  0.36547226  0.69942189     0.28400
H2414       H  0.77927278  0.50633289  0.77233334     0.28400
H2415       H  0.78841139  0.41547445  0.78584120     0.19000
H2416       H  0.76774637  0.44671203  0.67444288     0.19000
C2417       C  0.77044088  0.27161079  0.88796628    -0.06800
C2418       C  0.77820231  0.24428789  0.90576579    -0.18000
C2419       C  0.78948537  0.24627339  0.93734763     0.10400
C2420       C  0.79371970  0.27627174  0.95171507    -0.06800
C2421       C  0.78511938  0.30330659  0.93431973    -0.18000
C2422       C  0.77319887  0.30150245  0.90325760     0.10400
S2423       S  0.79880570  0.20981530  0.95757832    -0.33000
S2424       S  0.76383529  0.33833679  0.88335838    -0.33000
H2425       H  0.76180813  0.35734247  0.91075778     0.28400
H2426       H  0.82508475  0.22168909  0.97430839     0.28400
H2427       H  0.77561378  0.22115783  0.89496028     0.19000
H2428       H  0.78820151  0.32636110  0.94513413     0.19000
C2429       C  0.68960675  0.21643629  0.90458823    -0.06800
C2430       C  0.70033290  0.23693458  0.92881636    -0.18000
C2431       C  0.70219787  0.22737400  0.96056946     0.10400
C2432       C  0.69302560  0.19647699  0.96903889    -0.06800
C2433       C  0.68503623  0.17509825  0.94467200    -0.18000
C2434       C  0.68306551  0.18456709  0.91281911     0.10400
S2435       S  0.71326908  0.25673210  0.98931441    -0.33000
S2436       S  0.67014061  0.15512276  0.88473190    -0.33000
H2437       H  0.64394030  0.17326781  0.87448279     0.28400
H2438       H  0.73668939  0.23741994  0.00328205     0.28400
H2439       H  0.70662988  0.26118129  0.92331008     0.19000
H2440       H  0.67822055  0.15111309  0.95079807     0.19000
C2441       C  0.84673962  0.22568752  0.75089692    -0.06800
C2442       C  0.86135409  0.20083005  0.76783835    -0.18000
C2443       C  0.89258788  0.19089071  0.76072648     0.10400
C2444       C  0.91028493  0.20695670  0.73721691    -0.06800
C2445       C  0.89698588  0.23350524  0.72255913    -0.18000
C2446       C  0.86552641  0.24284511  0.72851181     0.10400
S2447       S  0.90764427  0.15611050  0.78052285    -0.33000
S2448       S  0.85005314  0.27543817  0.70515923    -0.33000
H2449       H  0.87948080  0.28733577  0.69459184     0.28400
H2450       H  0.94005530  0.16288533  0.77584427     0.28400
H2451       H  0.84771255  0.18768291  0.78526300     0.19000
H2452       H  0.91053148  0.24530451  0.70410705     0.19000
C2453       C  0.86589507  0.30405311  0.80769428    -0.06800
C2454       C  0.89027508  0.30711280  0.78463053    -0.18000
C2455       C  0.92264463  0.30617049  0.79270399     0.10400
C2456       C  0.93158524  0.30357418  0.82482368    -0.06800
C2457       C  0.90760211  0.29905396  0.84773349    -0.18000
C2458       C  0.87525017  0.29828587  0.83949734     0.10400
S2459       S  0.95139658  0.31115561  0.76131799    -0.33000
S2460       S  0.84758365  0.28903192  0.87068211    -0.33000
H2461       H  0.83103730  0.26689126  0.85207136     0.28400
H2462       H  0.96926146  0.28435488  0.77022517     0.28400
H2463       H  0.88424534  0.31086229  0.75992447     0.19000
H2464       H  0.91416323  0.29672650  0.87251896     0.19000
C2465       C  0.61059959  0.24592218  0.73571879    -0.06800
C2466       C  0.59408424  0.26932636  0.71838034    -0.18000
C2467       C  0.56223588  0.26505436  0.70902386     0.10400
C2468       C  0.54642281  0.23666932  0.71688362    -0.06800
C2469       C  0.56194755  0.21448304  0.73608104    -0.18000
C2470       C  0.59344476  0.21865907  0.74590670     0.10400
S2471       S  0.54404120  0.29554217  0.68518989    -0.33000
S2472       S  0.61083233  0.18803463  0.77069707    -0.33000
H2473       H  0.58381045  0.16871443  0.77378936     0.28400
H2474       H  0.51256957  0.28939047  0.69451771     0.28400
H2475       H  0.60633917  0.29067075  0.71110606     0.19000
H2476       H  0.54956783  0.19283559  0.74212045     0.19000
C2477       C  0.52780897  0.31322832  0.80800406    -0.06800
C2478       C  0.53412459  0.28192240  0.81704467    -0.18000
C2479       C  0.56549083  0.27117491  0.82235666     0.10400
C2480       C  0.59171500  0.29211992  0.81766746    -0.06800
C2481       C  0.58514948  0.32331413  0.80813069    -0.18000
C2482       C  0.55380494  0.33397157  0.80336166     0.10400
S2483       S  0.57091856  0.23148795  0.83784935    -0.33000
S2484       S  0.54846845  0.37455817  0.79123675    -0.33000
H2485       H  0.52047911  0.36920870  0.77382421     0.28400
H2486       H  0.53904876  0.22166628  0.83567764     0.28400
H2487       H  0.51420411  0.26640975  0.82178401     0.19000
H2488       H  0.60462497  0.33952959  0.80386527     0.19000
C2489       C  0.74503427  0.29671355  0.65386283    -0.06800
C2490       C  0.77450099  0.28504986  0.64250897    -0.18000
C2491       C  0.78242122  0.28495945  0.61048963     0.10400
C2492       C  0.76166018  0.29880814  0.58829545    -0.06800
C2493       C  0.73139721  0.30897672  0.59860399    -0.18000
C2494       C  0.72260645  0.30745853  0.63107256     0.10400
S2495       S  0.82024026  0.26745419  0.59950513    -0.33000
S2496       S  0.68260829  0.31876381  0.64148382    -0.33000
H2497       H  0.69190044  0.33940363  0.66588281     0.28400
H2498       H  0.81147419  0.25958337  0.56826420     0.28400
H2499       H  0.79190752  0.27518081  0.65867763     0.19000
H2500       H  0.71513129  0.31942658  0.58162471     0.19000
C2501       C  0.67071409  0.20658666  0.56789459    -0.06800
C2502       C  0.64818679  0.20690145  0.59276138    -0.18000
C2503       C  0.65672246  0.21396126  0.62419763     0.10400
C2504       C  0.68915688  0.21923974  0.63184517    -0.06800
C2505       C  0.71107462  0.22163138  0.60646934    -0.18000
C2506       C  0.70226228  0.21570668  0.57478583     0.10400
S2507       S  0.62487735  0.21595097  0.65297263    -0.33000
S2508       S  0.73246674  0.21689465  0.54417586    -0.33000
H2509       H  0.75649199  0.23079303  0.56262935     0.28400
H2510       H  0.63664133  0.24360332  0.66736816     0.28400
H2511       H  0.62360940  0.20106968  0.58770940     0.19000
H2512       H  0.73578158  0.22657738  0.61153557     0.19000
C2513       C  0.79026917  0.71039605  0.13306773    -0.06800
C2514       C  0.79790565  0.73522529  0.11202984    -0.18000
C2515       C  0.80227310  0.72972532  0.07924070     0.10400
C2516       C  0.79768264  0.69895038  0.06677753    -0.06800
C2517       C  0.78864429  0.67469115  0.08754359    -0.18000
C2518       C  0.78586965  0.67959064  0.12011796     0.10400
S2519       S  0.81537409  0.76240562  0.05511101    -0.33000
S2520       S  0.77851079  0.64447342  0.14340819    -0.33000
H2521       H  0.80453813  0.64984063  0.16354717     0.28400
H2522       H  0.83789953  0.74465119  0.03778807     0.28400
H2523       H  0.80118701  0.75893550  0.12121236     0.19000
H2524       H  0.78521553  0.65091592  0.07843372     0.19000
C2525       C  0.70763379  0.78422709  0.04849638    -0.06800
C2526       C  0.72067867  0.80341227  0.07226974    -0.18000
C2527       C  0.72454730  0.79218297  0.10335502     0.10400
C2528       C  0.71323542  0.76166741  0.11158004    -0.06800
C2529       C  0.70250883  0.74176433  0.08709884    -0.18000
C2530       C  0.70003393  0.75257502  0.05575529     0.10400
S2531       S  0.74482857  0.81766245  0.13078705    -0.33000
S2532       S  0.68378955  0.72601489  0.02662759    -0.33000
H2533       H  0.70401268  0.73613800  0.00199947     0.28400
H2534       H  0.75962659  0.79270985  0.14721824     0.28400
H2535       H  0.72680545  0.82774036  0.06682573     0.19000
H2536       H  0.69460618  0.71797930  0.09257754     0.19000
C2537       C  0.77004516  0.70204687  0.36841184    -0.06800
C2538       C  0.79718022  0.71573932  0.38232951    -0.18000
C2539       C  0.80393206  0.71242552  0.41455853     0.10400
C2540       C  0.78354813  0.69461822  0.43412090    -0.06800
C2541       C  0.75585736  0.68153690  0.42096717    -0.18000
C2542       C  0.74873489  0.68512590  0.38834948     0.10400
S2543       S  0.83956110  0.73105844  0.42917418    -0.33000
S2544       S  0.71350611  0.66647276  0.37265612    -0.33000
H2545       H  0.69985697  0.65833101  0.40209738     0.28400
H2546       H  0.82815877  0.73634610  0.46018430     0.28400
H2547       H  0.81364513  0.72935990  0.36798564     0.19000
H2548       H  0.74060465  0.66729902  0.43599527     0.19000
C2549       C  0.69418046  0.79005791  0.44731586    -0.06800
C2550       C  0.72674762  0.79121322  0.44068555    -0.18000
C2551       C  0.73814638  0.79035382  0.40943020     0.10400
C2552       C  0.71658452  0.78654624  0.38361767    -0.06800
C2553       C  0.68394040  0.78375140  0.39060534    -0.18000
C2554       C  0.67261768  0.78545249  0.42200691     0.10400
S2555       S  0.78023927  0.79742305  0.40469420    -0.33000
S2556       S  0.63033479  0.78155712  0.42838828    -0.33000
H2557       H  0.63248648  0.77099252  0.46000874     0.28400
H2558       H  0.77611175  0.82082973  0.38121336     0.28400
H2559       H  0.74332125  0.79563876  0.45985922     0.19000
H2560       H  0.66704436  0.78021973  0.37154024     0.19000
C2561       C  0.87175416  0.76885336  0.26433666    -0.06800
C2562       C  0.88823322  0.74899091  0.28563476    -0.18000
C2563       C  0.91994888  0.75416958  0.29366095     0.10400
C2564       C  0.93618685  0.78044573  0.28105270    -0.06800
C2565       C  0.92076696  0.79938682  0.25824334    -0.18000
C2566       C  0.88878635  0.79383735  0.24968555     0.10400
S2567       S  0.93775745  0.72760505  0.32216606    -0.33000
S2568       S  0.87042869  0.82114820  0.22242337    -0.33000
H2569       H  0.84264993  0.82524858  0.24074369     0.28400
H2570       H  0.96920942  0.73194386  0.31167644     0.28400
H2571       H  0.87606280  0.72951838  0.29711338     0.19000
H2572       H  0.93284147  0.82002425  0.24888367     0.19000
C2573       C  0.95891035  0.68560425  0.19914076    -0.06800
C2574       C  0.93532945  0.69382525  0.17690246    -0.18000
C2575       C  0.90274485  0.69463290  0.18505134     0.10400
C2576       C  0.89285626  0.68619655  0.21616992    -0.06800
C2577       C  0.91673983  0.67844620  0.23844341    -0.18000
C2578       C  0.94918957  0.67753705  0.23021948     0.10400
S2579       S  0.87533195  0.70745871  0.15483821    -0.33000
S2580       S  0.97678411  0.66384304  0.25994515    -0.33000
H2581       H  0.99557128  0.64571309  0.23899703     0.28400
H2582       H  0.85775121  0.72712551  0.17546834     0.28400
H2583       H  0.94238917  0.69951288  0.15278032     0.19000
H2584       H  0.91004893  0.67182995  0.26242185     0.19000
C2585       C  0.73338980  0.84753641  0.20486475    -0.06800
C2586       C  0.75399724  0.87276223  0.21203072    -0.18000
C2587       C  0.74383190  0.90479454  0.20946900     0.10400
C2588       C  0.71226639  0.91196674  0.19946853    -0.06800
C2589       C  0.69255380  0.88627381  0.19192666    -0.18000
C2590       C  0.70242983  0.85506093  0.19398366     0.10400
S2591       S  0.77200118  0.93486576  0.21985196    -0.33000
S2592       S  0.67369807  0.82559782  0.18272007    -0.33000
H2593       H  0.65264771  0.84503620  0.16550602     0.28400
H2594       H  0.75148508  0.94911795  0.24218200     0.28400
H2595       H  0.77749459  0.86755580  0.22123760     0.19000
H2596       H  0.66824192  0.89017821  0.18466220     0.19000
C2597       C  0.78773729  0.87158237  0.29621047    -0.06800
C2598       C  0.82043019  0.87849763  0.29471978    -0.18000
C2599       C  0.83183585  0.90951329  0.29866642     0.10400
C2600       C  0.81041053  0.93478590  0.30487453    -0.06800
C2601       C  0.77775552  0.92838372  0.30482595    -0.18000
C2602       C  0.76606917  0.89740495  0.30066439     0.10400
S2603       S  0.87419412  0.91527529  0.29546825    -0.33000
S2604       S  0.72346047  0.89169065  0.30387994    -0.33000
H2605       H  0.71457186  0.92369641  0.30691953     0.28400
H2606       H  0.87224821  0.94688953  0.28507085     0.28400
H2607       H  0.83742968  0.85953744  0.29072786     0.19000
H2608       H  0.76138817  0.94757300  0.31003482     0.19000
C2609       C  0.72086769  0.61464108  0.24185617    -0.06800
C2610       C  0.73856190  0.59687581  0.21963288    -0.18000
C2611       C  0.73334057  0.56467629  0.21505416     0.10400
C2612       C  0.71008845  0.54905238  0.23335795    -0.06800
C2613       C  0.69379261  0.56589578  0.25715318    -0.18000
C2614       C  0.69875304  0.59851774  0.26158167     0.10400
S2615       S  0.75478345  0.54575951  0.18289245    -0.33000
S2616       S  0.67456308  0.61796528  0.29127512    -0.33000
H2617       H  0.66577291  0.64384011  0.27221605     0.28400
H2618       H  0.75082985  0.51440988  0.19334970     0.28400
H2619       H  0.75618780  0.60831666  0.20475977     0.19000
H2620       H  0.67517589  0.55417926  0.27055989     0.19000
C2621       C  0.79953905  0.59737193  0.29063181    -0.06800
C2622       C  0.80016361  0.57280501  0.26769751    -0.18000
C2623       C  0.79810785  0.54071786  0.27596635     0.10400
C2624       C  0.79457510  0.53197847  0.30802329    -0.06800
C2625       C  0.79390693  0.55613501  0.33113082    -0.18000
C2626       C  0.79602350  0.58842300  0.32293433     0.10400
S2627       S  0.80305042  0.51200965  0.24471617    -0.33000
S2628       S  0.79415985  0.61659988  0.35492957    -0.33000
H2629       H  0.77001422  0.63447696  0.34031220     0.28400
H2630       H  0.82403575  0.49251215  0.26193104     0.28400
H2631       H  0.80334562  0.57837569  0.24277641     0.19000
H2632       H  0.79199267  0.54972317  0.35600253     0.19000
C2633       C  0.63634050  0.74953857  0.28778075    -0.06800
C2634       C  0.62445311  0.73525790  0.31568191    -0.18000
C2635       C  0.59351955  0.74208115  0.32701095     0.10400
C2636       C  0.57340241  0.76234880  0.30937846    -0.06800
C2637       C  0.58425000  0.77449399  0.28059254    -0.18000
C2638       C  0.61543796  0.76941094  0.27014769     0.10400
S2639       S  0.58162965  0.72572817  0.36475261    -0.33000
S2640       S  0.62810532  0.79127877  0.23569335    -0.33000
H2641       H  0.59809687  0.80215896  0.22566463     0.28400
H2642       H  0.54866837  0.72853451  0.35970366     0.28400
H2643       H  0.63987298  0.72013279  0.32968247     0.19000
H2644       H  0.56897415  0.79076363  0.26774962     0.19000
C2645       C  0.61865645  0.69160934  0.19906808    -0.06800
C2646       C  0.59453531  0.71513838  0.20041915    -0.18000
C2647       C  0.56212175  0.70800252  0.19703295     0.10400
C2648       C  0.55292764  0.67640867  0.19201272    -0.06800
C2649       C  0.57661019  0.65274002  0.19117700    -0.18000
C2650       C  0.60902820  0.65976924  0.19479970     0.10400
S2651       S  0.53324981  0.73982950  0.19616466    -0.33000
S2652       S  0.63641228  0.62694174  0.19215291    -0.33000
H2653       H  0.65257781  0.63507497  0.22001628     0.28400
H2654       H  0.55411860  0.76458423  0.20395146     0.28400
H2655       H  0.60099886  0.73969213  0.20284552     0.19000
H2656       H  0.56977160  0.62835062  0.18711234     0.19000
C2657       C  0.76573135  0.88148950  0.73661754    -0.06800
C2658       C  0.74740847  0.89800157  0.71396139    -0.18000
C2659       C  0.75328835  0.92971015  0.70647926     0.10400
C2660       C  0.77872127  0.94556658  0.72117939    -0.06800
C2661       C  0.79587632  0.93002700  0.74516789    -0.18000
C2662       C  0.78913233  0.89853536  0.75363451     0.10400
S2663       S  0.72885133  0.94782402  0.67626790    -0.33000
S2664       S  0.81273449  0.88100504  0.78462609    -0.33000
H2665       H  0.78594935  0.87193344  0.80259538     0.28400
H2666       H  0.73388329  0.97934944  0.68546083     0.28400
H2667       H  0.72867899  0.88589885  0.70122019     0.19000
H2668       H  0.81554588  0.94207832  0.75647861     0.19000
C2669       C  0.68342972  0.89528943  0.78548560    -0.06800
C2670       C  0.67729578  0.91914447  0.76272824    -0.18000
C2671       C  0.67441805  0.95109108  0.77118635     0.10400
C2672       C  0.67849787  0.96020819  0.80306719    -0.06800
C2673       C  0.68575463  0.93687074  0.82573892    -0.18000
C2674       C  0.68887550  0.90479922  0.81730249     0.10400
S2675       S  0.66291205  0.97872248  0.74066571    -0.33000
S2676       S  0.70067121  0.87768794  0.84812762    -0.33000
H2677       H  0.72388370  0.86264203  0.82917005     0.28400
H2678       H  0.64009693  0.99448889  0.75948317     0.28400
H2679       H  0.67332063  0.91286335  0.73810633     0.19000
H2680       H  0.68884612  0.94371410  0.85035511     0.19000
C2681       C  0.85518066  0.75018040  0.78537709    -0.06800
C2682       C  0.87172595  0.72885737  0.76545457    -0.18000
C2683       C  0.90231769  0.71817821  0.77247440     0.10400
C2684       C  0.91743310  0.72867396  0.80030357    -0.06800
C2685       C  0.90216794  0.75148892  0.81938537    -0.18000
C2686       C  0.87143246  0.76274248  0.81193598     0.10400
S2687       S  0.91960976  0.68873717  0.74643416    -0.33000
S2688       S  0.85334300  0.79063821  0.83873833    -0.33000
H2689       H  0.84409398  0.81150291  0.81437136     0.28400
H2690       H  0.95147951  0.69687138  0.75224283     0.28400
H2691       H  0.86021601  0.71918302  0.74463443     0.19000
H2692       H  0.91351215  0.75931968  0.84107471     0.19000
C2693       C  0.87155540  0.80616125  0.70149460    -0.06800
C2694       C  0.89603580  0.78313691  0.70353332    -0.18000
C2695       C  0.92819368  0.79096901  0.70145990     0.10400
C2696       C  0.93713732  0.82291256  0.69869737    -0.06800
C2697       C  0.91314000  0.84625297  0.69740224    -0.18000
C2698       C  0.88063755  0.83832788  0.69840886     0.10400
S2699       S  0.95629008  0.75864933  0.69939939    -0.33000
S2700       S  0.85240373  0.87030753  0.69486890    -0.33000
H2701       H  0.83807654  0.85744667  0.66760860     0.28400
H2702       H  0.97510193  0.77208376  0.67523296     0.28400
H2703       H  0.89033213  0.75822003  0.70530398     0.19000
H2704       H  0.91979810  0.87087415  0.69460521     0.19000
C2705       C  0.71656556  0.79652995  0.86730323    -0.06800
C2706       C  0.68569887  0.78961541  0.87833147    -0.18000
C2707       C  0.67693694  0.79268628  0.91011633     0.10400
C2708       C  0.69908736  0.80404118  0.93239460    -0.06800
C2709       C  0.73011075  0.81117790  0.92193928    -0.18000
C2710       C  0.73912271  0.80735382  0.88978243     0.10400
S2711       S  0.63723962  0.78020793  0.92074791    -0.33000
S2712       S  0.77954549  0.81631031  0.87920279    -0.33000
H2713       H  0.78450204  0.78688868  0.86426142     0.28400
H2714       H  0.64561862  0.76777961  0.95060193     0.28400
H2715       H  0.66799719  0.78085759  0.86212466     0.19000
H2716       H  0.74734568  0.81994901  0.93884977     0.19000
C2717       C  0.77540701  0.71658974  0.88578422    -0.06800
C2718       C  0.80828279  0.71773195  0.89199517    -0.18000
C2719       C  0.81993735  0.71548605  0.92308034     0.10400
C2720       C  0.79851916  0.71156517  0.94871812    -0.06800
C2721       C  0.76590773  0.71387933  0.94312625    -0.18000
C2722       C  0.75403026  0.71581791  0.91222702     0.10400
S2723       S  0.86243103  0.71724604  0.92873235    -0.33000
S2724       S  0.71129880  0.71400752  0.90902781    -0.33000
H2725       H  0.71206599  0.68589195  0.89104257     0.28400
H2726       H  0.86106494  0.72605123  0.96095446     0.28400
H2727       H  0.82514215  0.71975675  0.87255659     0.19000
H2728       H  0.74938833  0.71080410  0.96272948     0.19000
C2729       C  0.62027586  0.72326319  0.76629199    -0.06800
C2730       C  0.60332713  0.70332761  0.74551702    -0.18000
C2731       C  0.57100652  0.69592954  0.75106879     0.10400
C2732       C  0.55510281  0.70882586  0.77775872    -0.06800
C2733       C  0.57112191  0.73037165  0.79688413    -0.18000
C2734       C  0.60308236  0.73772819  0.79184072     0.10400
S2735       S  0.55198516  0.66835479  0.72470484    -0.33000
S2736       S  0.62067166  0.76494650  0.81986147    -0.33000
H2737       H  0.59227151  0.77793762  0.83207249     0.28400
H2738       H  0.52106511  0.68043754  0.72894487     0.28400
H2739       H  0.61552354  0.69260407  0.72548741     0.19000
H2740       H  0.55885528  0.73997016  0.81745990     0.19000
C2741       C  0.59840559  0.79742388  0.71303482    -0.06800
C2742       C  0.57404029  0.79478272  0.73617696    -0.18000
C2743       C  0.54178493  0.79410653  0.72803940     0.10400
C2744       C  0.53296370  0.79688853  0.69592426    -0.06800
C2745       C  0.55701207  0.79734328  0.67260529    -0.18000
C2746       C  0.58937383  0.79706255  0.68061227     0.10400
S2747       S  0.51310737  0.79360544  0.75994631    -0.33000
S2748       S  0.61741522  0.79719964  0.64816248    -0.33000
H2749       H  0.63529766  0.77185843  0.66062380     0.28400
H2750       H  0.49608040  0.76798747  0.74720699     0.28400
H2751       H  0.57986923  0.79449786  0.76119811     0.19000
H2752       H  0.55045855  0.79927112  0.64778021     0.19000
C2753       C  0.76237831  0.64653595  0.71192400    -0.06800
C2754       C  0.73988580  0.62219450  0.71522064    -0.18000
C2755       C  0.74905529  0.59000095  0.71372800     0.10400
C2756       C  0.78137191  0.58174482  0.70796123    -0.06800
C2757       C  0.80359199  0.60637576  0.70533899    -0.18000
C2758       C  0.79483997  0.63815094  0.70725232     0.10400
S2759       S  0.71842249  0.56093376  0.71904998    -0.33000
S2760       S  0.82614204  0.66741939  0.70299775    -0.33000
H2761       H  0.85246832  0.64688658  0.70541763     0.28400
H2762       H  0.73368822  0.54686471  0.74522001     0.28400
H2763       H  0.71529461  0.62822045  0.72031686     0.19000
H2764       H  0.82845784  0.60077188  0.70154027     0.19000
C2765       C  0.69694803  0.55900634  0.80620532    -0.06800
C2766       C  0.67384331  0.57964413  0.79364099    -0.18000
C2767       C  0.67988650  0.61215851  0.78973362     0.10400
C2768       C  0.70982035  0.62437799  0.79863743    -0.06800
C2769       C  0.73333667  0.60317203  0.80959953    -0.18000
C2770       C  0.72717020  0.57098112  0.81385996     0.10400
S2771       S  0.64897025  0.63742689  0.77404313    -0.33000
S2772       S  0.75769317  0.54752249  0.83279195    -0.33000
H2773       H  0.74746760  0.51794657  0.82184469     0.28400
H2774       H  0.63012080  0.61297502  0.76151824     0.28400
H2775       H  0.65028666  0.57055534  0.78875346     0.19000
H2776       H  0.75648478  0.61198714  0.81653169     0.19000
C2777       C  0.70493535  0.77612383  0.63153633    -0.06800
C2778       C  0.71544398  0.80508077  0.61867625    -0.18000
C2779       C  0.71287327  0.81202514  0.58649537     0.10400
C2780       C  0.69788686  0.79050153  0.56588517    -0.06800
C2781       C  0.68854012  0.76085396  0.57784525    -0.18000
C2782       C  0.69268991  0.75310850  0.61023917     0.10400
S2783       S  0.72883740  0.84938830  0.57314312    -0.33000
S2784       S  0.68149899  0.71395298  0.62269519    -0.33000
H2785       H  0.71046152  0.70813384  0.63836191     0.28400
H2786       H  0.73722634  0.83844672  0.54264342     0.28400
H2787       H  0.72611533  0.82287190  0.63377284     0.19000
H2788       H  0.67703982  0.74409443  0.56218251     0.19000
C2789       C  0.78280883  0.73054447  0.61380036    -0.06800
C2790       C  0.77476122  0.69863644  0.60911786    -0.18000
C2791       C  0.77398221  0.68542316  0.57860248     0.10400
C2792       C  0.78100311  0.70445498  0.55194936    -0.06800
C2793       C  0.78679571  0.73676479  0.55621607    -0.18000
C2794       C  0.78802041  0.75007760  0.58675541     0.10400
S2795       S  0.76519411  0.64382123  0.57378164    -0.33000
S2796       S  0.79982558  0.79108263  0.59025126    -0.33000
H2797       H  0.79363849  0.79962002  0.55854292     0.28400
H2798       H  0.76337498  0.63627745  0.60629850     0.28400
H2799       H  0.76961298  0.68384094  0.62949815     0.19000
H2800       H  0.79328568  0.75095247  0.53576689     0.19000
loop_ 
_geom_bond_atom_site_label_1 
_geom_bond_atom_site_label_2 
_geom_bond_distance 
_geom_bond_site_symmetry_2 
_ccdc_geom_bond_type 
O1           C28   1.275       .  A
O1          Mn27   2.104       .  S
C2           O35   1.273       .  A
C2           O32   1.265       .  A
C2         C2789   1.488       .  S
O3          Mn10   2.175       .  S
O3          Mn21   2.095       .  S
O3          Mn25   2.170       .  S
O3          Mn27   2.107       .  S
O4           C14   1.267       .  A
O4          Mn38   2.068       .  S
O5           C28   1.265       .  A
O5          Mn21   2.075       .  S
O6           C33   1.256       .  A
O6          Mn25   2.140       .  S
O7          Mn38   1.969       .  S
O7          Mn27   1.972       .  S
O7           C23   1.214       .  S
C8           O11   1.256       .  A
C8         C2657   1.495       .  S
C8           O34   1.221       .  S
O9          Mn29   2.107       .  S
O9          Mn10   2.176       .  S
O9          Mn43   2.096       .  S
O9          Mn25   2.174       .  S
Mn10         O39   2.134       .  S
Mn10         O15   2.155       .  S
Mn10         O42   2.152       .  S
Mn10         O16   2.187       .  S
O11         Mn25   2.113       .  S
O12          C14   1.275       .  A
O12         Mn19   2.121       .  S
C13          O39   1.258       .  A
C13        C2777   1.501       .  S
C13          O26   1.220       .  S
C14        C2693   1.502       .  S
O15          C40   1.260       .  A
O16         Mn19   2.121       .  S
O16         Mn38   2.087       .  S
O16         Mn25   2.166       .  S
O17         Mn21   1.957       .  S
O17         Mn43   1.953       .  S
O17          C40   1.211       .  S
C18          O44   1.269       .  A
C18          O20   1.277       .  A
C18        C2669   1.499       .  S
Mn19         O32   2.078       .  S
Mn19         O34   1.965       .  S
Mn19         O26   1.948       .  S
O20         Mn43   2.118       .  S
Mn21         O37   2.119       .  S
Mn21         O31   1.955       .  S
O22          C24   1.269       .  A
O22         Mn27   2.075       .  S
C23          O41   1.257       .  A
C23        C2681   1.496       .  S
C24          O37   1.277       .  A
C24        C2768   1.490       .  S
Mn25         O41   2.145       .  S
O26         Mn29   1.956       .  S
Mn27         O45   2.006       .  S
C28        C2717   1.494       .  S
Mn29         O36   2.114       .  S
Mn29         O44   2.081       .  S
Mn29         O34   1.964       .  S
C30          O36   1.275       .  A
C30          O46   1.269       .  A
C30        C2741   1.501       .  S
O31         Mn43   1.958       .  S
O31          C33   1.216       .  S
C33        C2705   1.501       .  S
O35         Mn38   2.101       .  S
Mn38         O45   2.015       .  S
C40        C2729   1.504       .  S
O42          C47   1.260       .  A
Mn43         O46   2.087       .  S
O45          C47   1.233       .  A
C47        C2753   1.486       .  S
O48          C75   1.278       .  A
O48         Mn74   2.132       .  S
C49          O82   1.275       .  A
C49          O79   1.266       .  A
C49        C2645   1.505       .  S
O50         Mn57   2.176       .  S
O50         Mn68   2.109       .  S
O50         Mn72   2.184       .  S
O50         Mn74   2.109       .  S
O51          C61   1.267       .  A
O51         Mn85   2.087       .  S
O52          C75   1.271       .  A
O52         Mn68   2.097       .  S
O53          C80   1.260       .  A
O53         Mn72   2.134       .  S
O54         Mn85   1.942       .  S
O54         Mn74   1.945       .  S
O54          C70   1.212       .  S
C55          O58   1.263       .  A
C55        C2585   1.492       .  S
C55          O81   1.237       .  A
O56         Mn76   2.124       .  S
O56         Mn57   2.166       .  S
O56         Mn90   2.112       .  S
O56         Mn72   2.173       .  S
Mn57         O86   2.133       .  S
Mn57         O62   2.125       .  S
Mn57         O89   2.101       .  S
Mn57         O63   2.164       .  S
O58         Mn72   2.160       .  S
O59          C61   1.269       .  A
O59         Mn66   2.116       .  S
C60          O86   1.258       .  A
C60        C2633   1.502       .  S
C60          O73   1.219       .  S
C61        C2528   1.490       .  S
O62          C87   1.253       .  A
O63         Mn66   2.088       .  S
O63         Mn85   2.134       .  S
O63         Mn72   2.180       .  S
O64         Mn68   1.959       .  S
O64         Mn90   1.959       .  S
O64          C87   1.217       .  S
C65          O91   1.270       .  A
C65          O67   1.282       .  A
C65        C2597   1.508       .  S
Mn66         O79   2.074       .  S
Mn66         O81   2.021       .  S
Mn66         O73   1.995       .  S
O67         Mn90   2.131       .  S
Mn68         O84   2.140       .  S
Mn68         O78   1.973       .  S
O69          C71   1.268       .  A
O69         Mn74   2.076       .  S
C70          O88   1.260       .  A
C70        C2513   1.496       .  S
C71          O84   1.280       .  A
C71        C2621   1.511       .  S
Mn72         O88   2.145       .  S
O73         Mn76   1.992       .  S
Mn74         O92   1.971       .  S
C75        C2576   1.507       .  S
Mn76         O83   2.113       .  S
Mn76         O91   2.089       .  S
Mn76         O81   2.017       .  S
C77          O83   1.277       .  A
C77          O93   1.266       .  A
C77        C2552   1.495       .  S
O78         Mn90   1.973       .  S
O78          C80   1.220       .  S
C80        C2561   1.496       .  S
O82         Mn85   2.118       .  S
Mn85         O92   1.968       .  S
C87        C2537   1.499       .  S
O89          C94   1.253       .  A
Mn90         O93   2.074       .  S
O92          C94   1.222       .  S
C94        C2609   1.489       .  S
O95         C122   1.272       .  A
O95        Mn121   2.104       .  S
C96         O129   1.272       .  A
C96         O126   1.275       .  A
C96        C2504   1.505       .  S
O97        Mn104   2.179       .  S
O97        Mn115   2.106       .  S
O97        Mn119   2.169       .  S
O97        Mn121   2.104       .  S
O98         C108   1.270       .  A
O98        Mn132   2.085       .  S
O99         C122   1.270       .  A
O99        Mn115   2.083       .  S
O100        C127   1.261       .  A
O100       Mn119   2.137       .  S
O101       Mn132   2.000       .  S
O101       Mn121   2.000       .  S
O101        C117   1.234       .  A
C102        O105   1.259       .  A
C102       C2441   1.498       .  S
C102        O128   1.217       .  S
O103       Mn123   2.102       .  S
O103       Mn104   2.183       .  S
O103       Mn137   2.120       .  S
O103       Mn119   2.173       .  S
Mn104       O133   2.159       .  S
Mn104       O109   2.130       .  S
Mn104       O136   2.132       .  S
Mn104       O110   2.176       .  S
O105       Mn119   2.132       .  S
O106        C108   1.274       .  A
O106       Mn113   2.103       .  S
C107        O133   1.257       .  A
C107       C2489   1.502       .  S
C107        O120   1.210       .  S
C108       C2381   1.500       .  S
O109        C134   1.257       .  A
O110       Mn113   2.105       .  S
O110       Mn132   2.107       .  S
O110       Mn119   2.183       .  S
O111       Mn115   1.959       .  S
O111       Mn137   1.958       .  S
O111        C134   1.217       .  S
C112        O138   1.269       .  A
C112        O114   1.279       .  A
C112       C2453   1.506       .  S
Mn113       O126   2.113       .  S
Mn113       O128   1.976       .  S
Mn113       O120   1.932       .  S
O114       Mn137   2.131       .  S
Mn115       O131   2.143       .  S
Mn115       O125   1.981       .  S
O116        C118   1.263       .  A
O116       Mn121   2.067       .  S
C117        O135   1.258       .  A
C117       C2369   1.491       .  S
C118        O131   1.282       .  A
C118       C2480   1.502       .  S
Mn119       O135   2.147       .  S
O120       Mn123   1.952       .  S
Mn121       O139   1.975       .  S
C122       C2429   1.497       .  S
Mn123       O130   2.114       .  S
Mn123       O138   2.090       .  S
Mn123       O128   1.963       .  S
C124        O130   1.276       .  A
C124        O140   1.272       .  A
C124       C2405   1.500       .  S
O125       Mn137   1.978       .  S
O125        C127   1.223       .  S
C127       C2417   1.510       .  S
O129       Mn132   2.094       .  S
Mn132       O139   1.981       .  S
C134       C2393   1.496       .  S
O136        C141   1.259       .  A
Mn137       O140   2.102       .  S
O139        C141   1.216       .  S
C141       C2465   1.499       .  S
O142        C169   1.270       .  A
O142       Mn168   2.090       .  S
C143        O176   1.271       .  A
C143        O173   1.267       .  A
C143       C2357   1.467       .  S
O144       Mn151   2.170       .  S
O144       Mn162   2.112       .  S
O144       Mn166   2.171       .  S
O144       Mn168   2.108       .  S
O145        C155   1.269       .  A
O145       Mn179   2.088       .  S
O146        C169   1.263       .  A
O146       Mn162   2.044       .  S
O147        C174   1.264       .  A
O147       Mn166   2.163       .  S
O148       Mn179   1.952       .  S
O148       Mn168   1.956       .  S
O148        C164   1.215       .  S
C149        O152   1.262       .  A
C149       C2252   1.499       .  S
C149        O175   1.222       .  S
O150       Mn170   2.114       .  S
O150       Mn151   2.167       .  S
O150       Mn184   2.120       .  S
O150       Mn166   2.165       .  S
Mn151       O180   2.143       .  S
Mn151       O156   2.144       .  S
Mn151       O183   2.156       .  S
Mn151       O157   2.181       .  S
O152       Mn166   2.134       .  S
O153        C155   1.280       .  A
O153       Mn160   2.128       .  S
C154        O180   1.261       .  A
C154       C2345   1.529       .  S
C154        O167   1.228       .  S
C155       C2285   1.509       .  S
O156        C181   1.263       .  A
O157       Mn160   2.128       .  S
O157       Mn179   2.104       .  S
O157       Mn166   2.182       .  S
O158       Mn162   1.945       .  S
O158       Mn184   1.949       .  S
O158        C181   1.217       .  S
C159        O185   1.268       .  A
C159        O161   1.279       .  A
C159       C2264   1.499       .  S
Mn160       O173   2.074       .  S
Mn160       O175   1.958       .  S
Mn160       O167   1.983       .  S
O161       Mn184   2.120       .  S
Mn162       O178   2.110       .  S
Mn162       O172   1.975       .  S
O163        C165   1.270       .  A
O163       Mn168   2.080       .  S
C164        O182   1.260       .  A
C164       C2276   1.504       .  S
C165        O178   1.276       .  A
C165       C2333   1.497       .  S
Mn166       O182   2.153       .  S
O167       Mn170   1.994       .  S
Mn168       O186   1.942       .  S
C169       C2237   1.477       .  S
Mn170       O177   2.132       .  S
Mn170       O185   2.082       .  S
Mn170       O175   1.961       .  S
C171        O177   1.279       .  A
C171        O187   1.263       .  A
C171       C2309   1.486       .  S
O172       Mn184   1.992       .  S
O172        C174   1.227       .  S
C174       C2225   1.538       .  S
O176       Mn179   2.093       .  S
Mn179       O186   1.954       .  S
C181       C2297   1.503       .  S
O183        C188   1.260       .  A
Mn184       O187   2.065       .  S
O186        C188   1.215       .  S
C188       C2324   1.509       .  S
O189        C216   1.273       .  A
O189       Mn215   2.100       .  S
C190        O223   1.273       .  A
C190        O220   1.264       .  A
C190       C2213   1.492       .  S
O191       Mn198   2.171       .  S
O191       Mn209   2.106       .  S
O191       Mn213   2.181       .  S
O191       Mn215   2.106       .  S
O192        C202   1.264       .  A
O192       Mn226   2.065       .  S
O193        C216   1.270       .  A
O193       Mn209   2.086       .  S
O194        C221   1.255       .  A
O194       Mn213   2.106       .  S
O195       Mn226   1.974       .  S
O195       Mn215   1.973       .  S
O195        C211   1.218       .  S
C196        O199   1.259       .  A
C196       C2081   1.491       .  S
C196        O222   1.229       .  A
O197       Mn217   2.113       .  S
O197       Mn198   2.166       .  S
O197       Mn231   2.114       .  S
O197       Mn213   2.180       .  S
Mn198       O227   2.104       .  S
Mn198       O203   2.138       .  S
Mn198       O230   2.141       .  S
Mn198       O204   2.186       .  S
O199       Mn213   2.153       .  S
O200        C202   1.278       .  A
O200       Mn207   2.130       .  S
C201        O227   1.258       .  A
C201       C2204   1.494       .  S
C201        O214   1.222       .  S
C202       C2165   1.505       .  S
O203        C228   1.257       .  A
O204       Mn207   2.101       .  S
O204       Mn226   2.097       .  S
O204       Mn213   2.170       .  S
O205       Mn209   1.965       .  S
O205       Mn231   1.956       .  S
O205        C228   1.212       .  S
C206        O232   1.273       .  A
C206        O208   1.272       .  A
C206       C2093   1.501       .  S
Mn207       O220   2.074       .  S
Mn207       O222   2.004       .  S
Mn207       O214   1.992       .  S
O208       Mn231   2.106       .  S
Mn209       O225   2.131       .  S
Mn209       O219   1.961       .  S
O210        C212   1.263       .  A
O210       Mn215   2.067       .  S
C211        O229   1.259       .  A
C211       C2153   1.505       .  S
C212        O225   1.280       .  A
C212       C2120   1.500       .  S
Mn213       O229   2.146       .  S
O214       Mn217   2.004       .  S
Mn215       O233   1.994       .  S
C216       C2141   1.495       .  S
Mn217       O224   2.098       .  S
Mn217       O232   2.103       .  S
Mn217       O222   2.006       .  S
C218        O224   1.273       .  A
C218        O234   1.273       .  A
C218       C2192   1.504       .  S
O219       Mn231   1.965       .  S
O219        C221   1.219       .  S
C221       C2129   1.478       .  S
O223       Mn226   2.108       .  S
Mn226       O233   1.992       .  S
C228       C2177   1.497       .  S
O230        C235   1.254       .  A
Mn231       O234   2.111       .  S
O233        C235   1.233       .  A
C235       C2105   1.488       .  S
O236        C263   1.268       .  A
O236       Mn262   2.077       .  S
C237        O270   1.264       .  A
C237        O267   1.268       .  A
C237       C1949   1.475       .  S
O238       Mn245   2.176       .  S
O238       Mn256   2.118       .  S
O238       Mn260   2.180       .  S
O238       Mn262   2.104       .  S
O239        C249   1.265       .  A
O239       Mn273   2.075       .  S
O240        C263   1.261       .  A
O240       Mn256   2.057       .  S
O241        C268   1.260       .  A
O241       Mn260   2.147       .  S
O242       Mn273   1.941       .  S
O242       Mn262   1.946       .  S
O242        C258   1.215       .  S
C243        O246   1.263       .  A
C243       C2033   1.502       .  S
C243        O269   1.223       .  S
O244       Mn264   2.109       .  S
O244       Mn245   2.162       .  S
O244       Mn278   2.108       .  S
O244       Mn260   2.162       .  S
Mn245       O274   2.162       .  S
Mn245       O250   2.165       .  S
Mn245       O277   2.145       .  S
Mn245       O251   2.180       .  S
O246       Mn260   2.136       .  S
O247        C249   1.280       .  A
O247       Mn254   2.121       .  S
C248        O274   1.264       .  A
C248       C1937   1.533       .  S
C248        O261   1.226       .  S
C249       C2069   1.501       .  S
O250        C275   1.267       .  A
O251       Mn254   2.118       .  S
O251       Mn273   2.107       .  S
O251       Mn260   2.159       .  S
O252       Mn256   2.007       .  S
O252       Mn278   2.017       .  S
O252        C275   1.239       .  A
C253        O279   1.266       .  A
C253        O255   1.275       .  A
C253       C2045   1.481       .  S
Mn254       O267   2.071       .  S
Mn254       O269   1.971       .  S
Mn254       O261   1.973       .  S
O255       Mn278   2.107       .  S
Mn256       O272   2.119       .  S
Mn256       O266   1.988       .  S
O257        C259   1.264       .  A
O257       Mn262   2.070       .  S
C258        O276   1.260       .  A
C258       C2060   1.504       .  S
C259        O272   1.278       .  A
C259       C1976   1.501       .  S
Mn260       O276   2.151       .  S
O261       Mn264   1.983       .  S
Mn262       O280   1.954       .  S
C263       C2024   1.470       .  S
Mn264       O271   2.114       .  S
Mn264       O279   2.078       .  S
Mn264       O269   1.962       .  S
C265        O271   1.277       .  A
C265        O281   1.271       .  A
C265       C2000   1.491       .  S
O266       Mn278   2.007       .  S
O266        C268   1.226       .  S
C268       C2012   1.530       .  S
O270       Mn273   2.064       .  S
Mn273       O280   1.958       .  S
C275       C1988   1.497       .  S
O277        C282   1.261       .  A
Mn278       O281   2.088       .  S
O280        C282   1.220       .  S
C282       C1964   1.508       .  S
O283        C310   1.270       .  A
O283       Mn309   2.093       .  S
C284        O317   1.275       .  A
C284        O314   1.264       .  A
C284       C1925   1.478       .  S
O285       Mn292   2.177       .  S
O285       Mn303   2.120       .  S
O285       Mn307   2.189       .  S
O285       Mn309   2.114       .  S
O286        C296   1.272       .  A
O286       Mn320   2.088       .  S
O287        C310   1.269       .  A
O287       Mn303   2.074       .  S
O288        C315   1.261       .  A
O288       Mn307   2.145       .  S
O289       Mn320   2.006       .  S
O289       Mn309   2.005       .  S
O289        C305   1.238       .  A
C290        O293   1.266       .  A
C290       C1793   1.537       .  S
C290        O316   1.222       .  S
O291       Mn311   2.120       .  S
O291       Mn292   2.186       .  S
O291       Mn325   2.120       .  S
O291       Mn307   2.196       .  S
Mn292       O321   2.148       .  S
Mn292       O297   2.144       .  S
Mn292       O324   2.181       .  S
Mn292       O298   2.180       .  S
O293       Mn307   2.180       .  S
O294        C296   1.280       .  A
O294       Mn301   2.126       .  S
C295        O321   1.265       .  A
C295       C1913   1.499       .  S
C295        O308   1.214       .  S
C296       C1832   1.505       .  S
O297        C322   1.260       .  A
O298       Mn301   2.117       .  S
O298       Mn320   2.114       .  S
O298       Mn307   2.167       .  S
O299       Mn303   1.956       .  S
O299       Mn325   1.951       .  S
O299        C322   1.220       .  S
C300        O326   1.267       .  A
C300        O302   1.265       .  A
C300       C1805   1.457       .  S
Mn301       O314   2.064       .  S
Mn301       O316   1.984       .  S
Mn301       O308   1.947       .  S
O302       Mn325   2.073       .  S
Mn303       O319   2.071       .  S
Mn303       O313   1.939       .  S
O304        C306   1.268       .  A
O304       Mn309   2.074       .  S
C305        O323   1.269       .  A
C305       C1817   1.509       .  S
C306        O319   1.264       .  A
C306       C1901   1.485       .  S
Mn307       O323   2.178       .  S
O308       Mn311   1.952       .  S
Mn309       O327   1.983       .  S
C310       C1856   1.491       .  S
Mn311       O318   2.122       .  S
Mn311       O326   2.080       .  S
Mn311       O316   1.974       .  S
C312        O318   1.278       .  A
C312        O328   1.269       .  A
C312       C1877   1.498       .  S
O313       Mn325   1.945       .  S
O313        C315   1.216       .  S
C315       C1841   1.501       .  S
O317       Mn320   2.107       .  S
Mn320       O327   2.006       .  S
C322       C1865   1.501       .  S
O324        C329   1.263       .  A
Mn325       O328   2.078       .  S
O327        C329   1.221       .  S
C329       C1889   1.533       .  S
C330       C2021   1.456       .  S
C330        N331   1.356       .  A
C330        N335   1.354       .  A
N331        C332   1.356       .  A
C332       C1769   1.454       .  S
C332        N333   1.354       .  A
N333        C334   1.350       .  A
C334       C1781   1.461       .  S
C334        N335   1.352       .  A
C336       C2009   1.511       .  S
C336        N337   1.361       .  A
C336        N341   1.382       .  A
N337        C338   1.357       .  A
C338       C1757   1.484       .  S
C338        N339   1.352       .  A
N339        C340   1.356       .  A
C340       C1745   1.503       .  S
C340        N341   1.381       .  A
C342       C1721   1.515       .  S
C342        N343   1.358       .  A
C342        N347   1.392       .  A
N343        C344   1.348       .  A
C344       C1736   1.479       .  S
C344        N345   1.350       .  A
N345        C346   1.360       .  A
C346       C1892   1.541       .  S
C346        N347   1.390       .  A
C348       C1904   1.471       .  S
C348        N349   1.358       .  A
C348        N353   1.358       .  A
N349        C350   1.353       .  A
C350       C1709   1.454       .  S
C350        N351   1.348       .  A
N351        C352   1.352       .  A
C352       C1697   1.457       .  S
C352        N353   1.357       .  A
C354       C2408   1.481       .  S
C354        N355   1.355       .  A
C354        N359   1.370       .  A
N355        C356   1.350       .  A
C356       C1685   1.464       .  S
C356        N357   1.349       .  A
N357        C358   1.361       .  A
C358       C2756   1.501       .  S
C358        N359   1.369       .  A
C360       C2765   1.468       .  S
C360        N361   1.363       .  A
C360        N365   1.348       .  A
N361        C362   1.366       .  A
C362       C2396   1.475       .  S
C362        N363   1.363       .  A
N363        C364   1.357       .  A
C364       C1673   1.472       .  S
C364        N365   1.348       .  A
C366       C2312   1.473       .  S
C366        N367   1.352       .  A
C366        N371   1.367       .  A
N367        C368   1.350       .  A
C368       C1661   1.468       .  S
C368        N369   1.352       .  A
N369        C370   1.359       .  A
C370       C2468   1.479       .  S
C370        N371   1.368       .  A
C372       C2300   1.482       .  S
C372        N373   1.371       .  A
C372        N377   1.357       .  A
N373        C374   1.370       .  A
C374       C2477   1.489       .  S
C374        N375   1.356       .  A
N375        C376   1.355       .  A
C376       C1649   1.471       .  S
C376        N377   1.353       .  A
N378        C383   1.350       .  A
N378        C382   1.350       .  A
N378        H410   1.040       .  S
N379        C386   1.348       .  A
N379        C387   1.348       .  A
N380        C385   1.352       .  A
N380        C384   1.352       .  A
N380        H411   1.043       .  S
N381        C388   1.347       .  A
N381        C389   1.347       .  A
C382        C390   1.388       .  A
C382        C398   1.413       .  A
C383        C399   1.408       .  A
C383        C391   1.386       .  A
C384        C392   1.386       .  A
C384        C401   1.410       .  A
C385        C400   1.416       .  A
C385        C393   1.391       .  A
C386        C398   1.405       .  A
C386        C394   1.387       .  A
C387        C401   1.402       .  A
C387        C395   1.380       .  A
C388        C396   1.381       .  A
C388        C399   1.400       .  A
C389        C397   1.387       .  A
C389        C400   1.412       .  A
C390        C391   1.370       .  A
C390        H402   1.083       .  S
C391        H403   1.082       .  S
C392        C393   1.367       .  A
C392        H404   1.082       .  S
C393        H405   1.081       .  S
C394        C395   1.373       .  A
C394        H406   1.080       .  S
C395        H407   1.082       .  S
C396        C397   1.374       .  A
C396        H408   1.082       .  S
C397        H409   1.082       .  S
C398       C1637   1.483       .  S
C399       C1625   1.488       .  S
C400       C1676   1.484       .  S
C401       C1652   1.483       .  S
N412        C417   1.358       .  A
N412        C416   1.350       .  A
N412        H444   1.040       .  S
N413        C420   1.346       .  A
N413        C421   1.350       .  A
N414        C419   1.351       .  A
N414        C418   1.352       .  A
N414        H445   1.037       .  S
N415        C422   1.345       .  A
N415        C423   1.350       .  A
C416        C424   1.391       .  A
C416        C432   1.419       .  A
C417        C433   1.417       .  A
C417        C425   1.386       .  A
C418        C426   1.383       .  A
C418        C435   1.414       .  A
C419        C434   1.417       .  A
C419        C427   1.391       .  A
C420        C432   1.410       .  A
C420        C428   1.388       .  A
C421        C435   1.406       .  A
C421        C429   1.383       .  A
C422        C430   1.385       .  A
C422        C433   1.403       .  A
C423        C431   1.383       .  A
C423        C434   1.412       .  A
C424        C425   1.370       .  A
C424        H436   1.082       .  S
C425        H437   1.081       .  S
C426        C427   1.374       .  A
C426        H438   1.082       .  S
C427        H439   1.080       .  S
C428        C429   1.371       .  A
C428        H440   1.082       .  S
C429        H441   1.082       .  S
C430        C431   1.375       .  A
C430        H442   1.083       .  S
C431        H443   1.076   1_554  S
C432       C1601   1.477       .  S
C433       C1760   1.490       .  S
C434       C1712   1.484       .  S
C435       C1616   1.493       .  S
C446       C2189   1.490       .  S
C446        N447   1.371       .  A
C446        N451   1.359       .  A
N447        C448   1.368       .  A
C448       C2321   1.489       .  S
C448        N449   1.359       .  A
N449        C450   1.355       .  A
C450       C1589   1.473       .  S
C450        N451   1.355       .  A
C452       C2336   1.486       .  S
C452        N453   1.354       .  A
C452        N457   1.371       .  A
N453        C454   1.347       .  A
C454       C1640   1.451       .  S
C454        N455   1.347       .  A
N455        C456   1.353       .  A
C456       C2180   1.474       .  S
C456        N457   1.370       .  A
C458       C2744   1.479       .  S
C458        N459   1.354       .  A
C458        N463   1.366       .  A
N459        C460   1.348       .  A
C460       C1577   1.458       .  S
C460        N461   1.349       .  A
N461        C462   1.358       .  A
C462       C2108   1.472       .  S
C462        N463   1.365       .  A
C464       C2732   1.480       .  S
C464        N465   1.368       .  A
C464        N469   1.360       .  A
N465        C466   1.368       .  A
C466       C2117   1.478       .  S
C466        N467   1.354       .  A
N467        C468   1.350       .  A
C468       C1628   1.463       .  S
C468        N469   1.352       .  A
C470       C2540   1.477       .  S
C470        N471   1.367       .  A
C470        N475   1.361       .  A
N471        C472   1.365       .  A
C472       C2792   1.472       .  S
C472        N473   1.350       .  A
N473        C474   1.348       .  A
C474       C1565   1.469       .  S
C474        N475   1.356       .  A
C476       C2780   1.480       .  S
C476        N477   1.367       .  A
C476        N481   1.354       .  A
N477        C478   1.370       .  A
C478       C2549   1.478       .  S
C478        N479   1.358       .  A
N479        C480   1.352       .  A
C480       C1553   1.460       .  S
C480        N481   1.348       .  A
C482       C1880   1.476       .  S
C482        N483   1.354       .  A
C482        N487   1.366       .  A
N483        C484   1.353       .  A
C484       C1541   1.471       .  S
C484        N485   1.354       .  A
N485        C486   1.356       .  A
C486       C2636   1.474       .  S
C486        N487   1.365       .  A
C488       C1868   1.488       .  S
C488        N489   1.369       .  A
C488        N493   1.362       .  A
N489        C490   1.368       .  A
C490       C2648   1.487       .  S
C490        N491   1.356       .  A
N491        C492   1.352       .  A
C492       C1613   1.472       .  S
C492        N493   1.358       .  A
N494        C499   1.352       .  A
N494        C498   1.352       .  A
N494        H526   1.041       .  S
N495        C502   1.344       .  A
N495        C503   1.342       .  A
N496        C501   1.352       .  A
N496        C500   1.353       .  A
N496        H527   1.040       .  S
N497        C504   1.347       .  A
N497        C505   1.348       .  A
C498        C506   1.388       .  A
C498        C514   1.414       .  A
C499        C515   1.412       .  A
C499        C507   1.387       .  A
C500        C508   1.385       .  A
C500        C517   1.412       .  A
C501        C516   1.413       .  A
C501        C509   1.388       .  A
C502        C514   1.401       .  A
C502        C510   1.382       .  A
C503        C517   1.399       .  A
C503        C511   1.388       .  A
C504        C512   1.384       .  A
C504        C515   1.406       .  A
C505        C513   1.387       .  A
C505        C516   1.403       .  A
C506        C507   1.367       .  A
C506        H518   1.081       .  S
C507        H519   1.082       .  S
C508        C509   1.373       .  A
C508        H520   1.082       .  S
C509        H521   1.082       .  S
C510        C511   1.375       .  A
C510        H522   1.082       .  S
C511        H523   1.081       .  S
C512        C513   1.373       .  A
C512        H524   1.082       .  S
C513        H525   1.083       .  S
C514       C1544   1.484       .  S
C515       C1529   1.482       .  S
C516       C1580   1.485       .  S
C517       C1556   1.488       .  S
N528        C533   1.354       .  A
N528        C532   1.359       .  A
N528        H560   1.040       .  S
N529        C536   1.347       .  A
N529        C537   1.350       .  A
N530        C535   1.352       .  A
N530        C534   1.351       .  A
N530        H561   1.037       .  S
N531        C538   1.345       .  A
N531        C539   1.350       .  A
C532        C540   1.384       .  A
C532        C548   1.416       .  A
C533        C549   1.422       .  A
C533        C541   1.391       .  A
C534        C542   1.388       .  A
C534        C551   1.414       .  A
C535        C550   1.414       .  A
C535        C543   1.386       .  A
C536        C548   1.397       .  A
C536        C544   1.381       .  A
C537        C551   1.404       .  A
C537        C545   1.381       .  A
C538        C546   1.386       .  A
C538        C549   1.408       .  A
C539        C547   1.384       .  A
C539        C550   1.405       .  A
C540        C541   1.365       .  A
C540        H552   1.081       .  S
C541        H553   1.080       .  S
C542        C543   1.376       .  A
C542        H554   1.083       .  S
C543        H555   1.082       .  S
C544        C545   1.375       .  A
C544        H556   1.079       .  S
C545        H557   1.077   1_545  S
C546        C547   1.373       .  A
C546        H558   1.082       .  S
C547        H559   1.082       .  S
C548       C1517   1.487       .  S
C549       C1664   1.485       .  S
C550       C1508   1.491       .  S
C551       C1784   1.482       .  S
C562       C2201   1.465       .  S
C562        N563   1.366       .  A
C562        N567   1.353       .  A
N563        C564   1.366       .  A
C564       C1928   1.466       .  S
C564        N565   1.353       .  A
N565        C566   1.348       .  A
C566       C1493   1.453       .  S
C566        N567   1.346       .  A
C568       C1916   1.477       .  S
C568        N569   1.368       .  A
C568        N573   1.360       .  A
N569        C570   1.366       .  A
C570       C2216   1.474       .  S
C570        N571   1.352       .  A
N571        C572   1.346       .  A
C572       C1532   1.470       .  S
C572        N573   1.353       .  A
C574       C2348   1.512       .  S
C574        N575   1.383       .  A
C574        N579   1.361       .  A
N575        C576   1.381       .  A
C576       C1481   1.503       .  S
C576        N577   1.354       .  A
N577        C578   1.351       .  A
C578       C1520   1.477       .  S
C578        N579   1.358       .  A
C580       C1457   1.458       .  S
C580        N581   1.356       .  A
C580        N585   1.351       .  A
N581        C582   1.358       .  A
C582       C2360   1.454       .  S
C582        N583   1.356       .  A
N583        C584   1.352       .  A
C584       C1469   1.449       .  S
C584        N585   1.344       .  A
C586       C2624   1.489       .  S
C586        N587   1.354       .  A
C586        N591   1.375       .  A
N587        C588   1.351       .  A
C588       C1448   1.460       .  S
C588        N589   1.347       .  A
N589        C590   1.352       .  A
C590       C2036   1.481       .  S
C590        N591   1.373       .  A
C592       C2048   1.467       .  S
C592        N593   1.352       .  A
C592        N597   1.367       .  A
N593        C594   1.348       .  A
C594       C1604   1.453       .  S
C594        N595   1.347       .  A
N595        C596   1.354       .  A
C596       C2612   1.466       .  S
C596        N597   1.367       .  A
N598        C603   1.352       .  A
N598        C602   1.349       .  A
N598        H630   0.996       .  S
N599        C606   1.353       .  A
N599        C607   1.353       .  A
N600        C605   1.352       .  A
N600        C604   1.351       .  A
N600        H631   1.001       .  S
N601        C608   1.352       .  A
N601        C609   1.350       .  A
C602        C610   1.384       .  A
C602        C618   1.402       .  A
C603        C619   1.409       .  A
C603        C611   1.384       .  A
C604        C612   1.384       .  A
C604        C621   1.405       .  A
C605        C620   1.411       .  A
C605        C613   1.385       .  A
C606        C618   1.410       .  A
C606        C614   1.383       .  A
C607        C621   1.414       .  A
C607        C615   1.387       .  A
C608        C616   1.387       .  A
C608        C619   1.417       .  A
C609        C617   1.388       .  A
C609        C620   1.414       .  A
C610        C611   1.377       .  A
C610        H622   1.082       .  S
C611        H623   1.082       .  S
C612        C613   1.382       .  A
C612        H624   1.082       .  S
C613        H625   1.082       .  S
C614        C615   1.369       .  A
C614        H626   1.082       .  S
C615        H627   1.083       .  S
C616        C617   1.364       .  A
C616        H628   1.081       .  S
C617        H629   1.081       .  S
C618       C1433   1.481       .  S
C619       C1445   1.476       .  S
C620       C1568   1.482       .  S
C621       C1688   1.485       .  S
N632        C637   1.358       .  A
N632        C636   1.349       .  A
N632        H664   1.038       .  S
N633        C640   1.346       .  A
N633        C641   1.351       .  A
N634        C639   1.351       .  A
N634        C638   1.352       .  A
N634        H665   1.035       .  S
N635        C642   1.346       .  A
N635        C643   1.350       .  A
C636        C644   1.390       .  A
C636        C652   1.418       .  A
C637        C653   1.419       .  A
C637        C645   1.386       .  A
C638        C646   1.385       .  A
C638        C655   1.417       .  A
C639        C654   1.419       .  A
C639        C647   1.390       .  A
C640        C652   1.410       .  A
C640        C648   1.386       .  A
C641        C655   1.410       .  A
C641        C649   1.385       .  A
C642        C650   1.384       .  A
C642        C653   1.402       .  A
C643        C651   1.378   1_455  A
C643        C654   1.411       .  A
C644        C645   1.371       .  A
C644        H656   1.082       .  S
C645        H657   1.081       .  S
C646        C647   1.376       .  A
C646        H658   1.082       .  S
C647        H659   1.080       .  S
C648        C649   1.372       .  A
C648        H660   1.082       .  S
C649        H661   1.081       .  S
C650        C651   1.371   1_455  A
C650        H662   1.083   1_455  S
C651        H663   1.071       .  S
C652       C1496   1.474       .  S
C653       C1733   1.489       .  S
C654       C1472   1.479       .  S
C655       C1592   1.495       .  S
C666       C2492   1.478       .  S
C666        N667   1.355       .  A
C666        N671   1.368       .  A
N667        C668   1.346       .  A
C668       C1436   1.460       .  S
C668        N669   1.350       .  A
N669        C670   1.358       .  A
C670       C2072   1.481       .  S
C670        N671   1.371       .  A
C672       C2057   1.501       .  S
C672        N673   1.369       .  A
C672        N677   1.360       .  A
N673        C674   1.371       .  A
C674       C2501   1.496       .  S
C674        N675   1.359       .  A
N675        C676   1.353       .  A
C676       C1505   1.469       .  S
C676        N677   1.352       .  A
C678       C2516   1.485       .  S
C678        N679   1.357       .  A
C678        N683   1.366       .  A
N679        C680   1.349       .  A
C680       C1424   1.463   1_554  S
C680        N681   1.350   1_554  A
N681        C682   1.355       .  A
C682       C2720   1.473       .  S
C682        N683   1.367   1_556  A
C684       C2708   1.484       .  S
C684        N685   1.365       .  A
C684        N689   1.362       .  A
N685        C686   1.364   1_556  A
C686       C2525   1.473       .  S
C686        N687   1.353       .  A
N687        C688   1.351       .  A
C688       C1409   1.483       .  S
C688        N689   1.358   1_554  A
C690       C2096   1.493       .  S
C690        N691   1.357   1_455  A
C690        N695   1.367   1_455  A
N691        C692   1.354       .  A
C692       C1397   1.472       .  S
C692        N693   1.352       .  A
N693        C694   1.356       .  A
C694       C2684   1.474       .  S
C694        N695   1.365       .  A
C696       C2084   1.471       .  S
C696        N697   1.356       .  A
C696        N701   1.365   1_455  A
N697        C698   1.351       .  A
C698       C1385   1.464       .  S
C698        N699   1.353   1_455  A
N699        C700   1.356       .  A
C700       C2696   1.481       .  S
C700        N701   1.367       .  A
C702       C2672   1.479       .  S
C702        N703   1.356       .  A
C702        N707   1.368   1_565  A
N703        C704   1.354   1_565  A
C704       C1373   1.469       .  S
C704        N705   1.352       .  A
N705        C706   1.354       .  A
C706       C2372   1.473       .  S
C706        N707   1.367       .  A
C708       C2384   1.486       .  S
C708        N709   1.366       .  A
C708        N713   1.354       .  A
N709        C710   1.366   1_545  A
C710       C2660   1.475       .  S
C710        N711   1.358       .  A
N711        C712   1.353       .  A
C712       C1361   1.461       .  S
C712        N713   1.349   1_565  A
C714       C2228   1.520       .  S
C714        N715   1.393   1_556  A
C714        N719   1.359       .  A
N715        C716   1.391       .  A
C716       C1340   1.540       .  S
C716        N717   1.360       .  A
N717        C718   1.348       .  A
C718       C1352   1.471   1_554  S
C718        N719   1.350   1_554  A
C720       C1313   1.460       .  S
C720        N721   1.351       .  A
C720        N725   1.356       .  A
N721        C722   1.349   1_554  A
C722       C2240   1.463       .  S
C722        N723   1.351       .  A
N723        C724   1.354   1_556  A
C724       C1325   1.462       .  S
C724        N725   1.356       .  A
C726       C1973   1.477       .  S
C726        N727   1.376   1_545  A
C726        N731   1.357   1_545  A
N727        C728   1.371       .  A
C728       C2588   1.513       .  S
C728        N729   1.360       .  A
N729        C730   1.343       .  A
C730       C1301   1.462       .  S
C730        N731   1.345       .  A
C732       C2600   1.494       .  S
C732        N733   1.358       .  A
C732        N737   1.372       .  A
N733        C734   1.355       .  A
C734       C1289   1.476       .  S
C734        N735   1.355   1_565  A
N735        C736   1.361       .  A
C736       C1961   1.498       .  S
C736        N737   1.372   1_545  A
N738        C743   1.354       .  A
N738        C742   1.355       .  A
N738        H770   1.038       .  S
N739        C746   1.348       .  A
N739        C747   1.348       .  A
N740        C745   1.354       .  A
N740        C744   1.356   1_565  A
N740        H771   1.039   1_565  S
N741        C748   1.351       .  A
N741        C749   1.350       .  A
C742        C750   1.384       .  A
C742        C758   1.411       .  A
C743        C759   1.419       .  A
C743        C751   1.391       .  A
C744        C752   1.391   1_545  A
C744        C761   1.422       .  A
C745        C760   1.411       .  A
C745        C753   1.383       .  A
C746        C758   1.406   1_554  A
C746        C754   1.384       .  A
C747        C761   1.410       .  A
C747        C755   1.387       .  A
C748        C756   1.387       .  A
C748        C759   1.413   1_565  A
C749        C757   1.384       .  A
C749        C760   1.406   1_556  A
C750        C751   1.366       .  A
C750        H762   1.083       .  S
C751        H763   1.081       .  S
C752        C753   1.363       .  A
C752        H764   1.079       .  S
C753        H765   1.082       .  S
C754        C755   1.377       .  A
C754        H766   1.082       .  S
C755        H767   1.082       .  S
C756        C757   1.374       .  A
C756        H768   1.083       .  S
C757        H769   1.082       .  S
C758       C1349   1.492       .  S
C759       C1253   1.489   1_545  S
C760       C1268   1.489       .  S
C761       C1277   1.494       .  S
N772        C777   1.356       .  A
N772        C776   1.356       .  A
N772        H804   1.041       .  S
N773        C780   1.346       .  A
N773        C781   1.346   1_556  A
N774        C779   1.350       .  A
N774        C778   1.350       .  A
N774        H805   1.041       .  S
N775        C782   1.348       .  A
N775        C783   1.349       .  A
C776        C784   1.386       .  A
C776        C792   1.415   1_565  A
C777        C793   1.420   1_556  A
C777        C785   1.389       .  A
C778        C786   1.386       .  A
C778        C795   1.413       .  A
C779        C794   1.413   1_545  A
C779        C787   1.388       .  A
C780        C792   1.405       .  A
C780        C788   1.386       .  A
C781        C795   1.403       .  A
C781        C789   1.384   1_554  A
C782        C790   1.387       .  A
C782        C793   1.413       .  A
C783        C791   1.383       .  A
C783        C794   1.407       .  A
C784        C785   1.367       .  A
C784        H796   1.082       .  S
C785        H797   1.080       .  S
C786        C787   1.370       .  A
C786        H798   1.082       .  S
C787        H799   1.082       .  S
C788        C789   1.376       .  A
C788        H800   1.082       .  S
C789        H801   1.082       .  S
C790        C791   1.375       .  A
C790        H802   1.082       .  S
C791        H803   1.082       .  S
C792       C1376   1.489       .  S
C793       C1412   1.499       .  S
C794       C1304   1.489       .  S
C795       C1241   1.489       .  S
C806       C1985   1.480       .  S
C806        N807   1.359       .  A
C806        N811   1.368       .  A
N807        C808   1.355       .  A
C808       C1244   1.463       .  S
C808        N809   1.348       .  A
N809        C810   1.354       .  A
C810       C2432   1.485   1_554  S
C810        N811   1.368       .  A
C812       C2420   1.498       .  S
C812        N813   1.372   1_556  A
C812        N817   1.363       .  A
N813        C814   1.371       .  A
C814       C1997   1.471       .  S
C814        N815   1.346       .  A
N815        C816   1.343       .  A
C816       C1229   1.460       .  S
C816        N817   1.355   1_554  A
C818       C1808   1.475       .  S
C818        N819   1.364       .  A
C818        N823   1.355       .  A
N819        C820   1.360   1_565  A
C820       C1280   1.467       .  S
C820        N821   1.350       .  A
N821        C822   1.349       .  A
C822       C1217   1.451       .  S
C822        N823   1.347   1_545  A
C824       C1193   1.540       .  S
C824        N825   1.391   1_545  A
C824        N829   1.361       .  A
N825        C826   1.393       .  A
C826       C1796   1.520       .  S
C826        N827   1.358       .  A
N827        C828   1.353       .  A
C828       C1205   1.487       .  S
C828        N829   1.354   1_565  A
C830       C2573   1.491       .  S
C830        N831   1.356       .  A
C830        N835   1.374   1_655  A
N831        C832   1.354   1_655  A
C832       C1184   1.471       .  S
C832        N833   1.353       .  A
N833        C834   1.357       .  A
C834       C1820   1.489       .  S
C834        N835   1.373       .  A
C836       C2564   1.480       .  S
C836        N837   1.369       .  A
C836        N841   1.359       .  A
N837        C838   1.370   1_655  A
C838       C1829   1.490       .  S
C838        N839   1.354       .  A
N839        C840   1.352   1_455  A
C840       C1169   1.479       .  S
C840        N841   1.353       .  A
N842        C847   1.349       .  A
N842        C846   1.352       .  A
N842        H874   1.044       .  S
N843        C850   1.349       .  A
N843        C851   1.346       .  A
N844        C849   1.355   1_556  A
N844        C848   1.357   1_455  A
N844        H875   1.042   1_456  S
N845        C852   1.353       .  A
N845        C853   1.344       .  A
C846        C854   1.380       .  A
C846        C862   1.404       .  A
C847        C863   1.404       .  A
C847        C855   1.388       .  A
C848        C856   1.379   1_655  A
C848        C865   1.405       .  A
C849        C864   1.421       .  A
C849        C857   1.390   1_554  A
C850        C862   1.410   1_556  A
C850        C858   1.388       .  A
C851        C865   1.404       .  A
C851        C859   1.384       .  A
C852        C860   1.382       .  A
C852        C863   1.409   1_455  A
C853        C861   1.391       .  A
C853        C864   1.413       .  A
C854        C855   1.372       .  A
C854        H866   1.077       .  S
C855        H867   1.082       .  S
C856        C857   1.370       .  A
C856        H868   1.082       .  S
C857        H869   1.082       .  S
C858        C859   1.373       .  A
C858        H870   1.083       .  S
C859        H871   1.082       .  S
C860        C861   1.374       .  A
C860        H872   1.082       .  S
C861        H873   1.081       .  S
C862       C1232   1.477       .  S
C863       C1157   1.489       .  S
C864       C1328   1.484       .  S
C865       C1148   1.489       .  S
N876        C881   1.348       .  A
N876        C880   1.345       .  A
N876        H908   1.032       .  S
N877        C884   1.352       .  A
N877        C885   1.354       .  A
N878        C883   1.343   1_554  A
N878        C882   1.346       .  A
N878        H909   1.035       .  S
N879        C886   1.354       .  A
N879        C887   1.352       .  A
C880        C888   1.385       .  A
C880        C896   1.404   1_556  A
C881        C897   1.415       .  A
C881        C889   1.388       .  A
C882        C890   1.384       .  A
C882        C899   1.403       .  A
C883        C898   1.399       .  A
C883        C891   1.385   1_556  A
C884        C896   1.410       .  A
C884        C892   1.385       .  A
C885        C899   1.414   1_655  A
C885        C893   1.387       .  A
C886        C894   1.390       .  A
C886        C897   1.421   1_455  A
C887        C895   1.383       .  A
C887        C898   1.410       .  A
C888        C889   1.379       .  A
C888        H900   1.082       .  S
C889        H901   1.082       .  S
C890        C891   1.379       .  A
C890        H902   1.082       .  S
C891        H903   1.082       .  S
C892        C893   1.367       .  A
C892        H904   1.082       .  S
C893        H905   1.081       .  S
C894        C895   1.363       .  A
C894        H906   1.079       .  S
C895        H907   1.082       .  S
C896       C1421   1.480       .  S
C897       C1400   1.495       .  S
C898       C1133   1.472       .  S
C899       C1181   1.486       .  S
C910       C1844   1.490       .  S
C910        N911   1.369       .  A
C910        N915   1.360       .  A
N911        C912   1.370   1_554  A
C912       C2144   1.479       .  S
C912        N913   1.355       .  A
N913        C914   1.349   1_556  A
C914       C1265   1.464       .  S
C914        N915   1.352       .  A
C916       C2132   1.460       .  S
C916        N917   1.354       .  A
C916        N921   1.363       .  A
N917        C918   1.347       .  A
C918       C1136   1.453       .  S
C918        N919   1.347   1_556  A
N919        C920   1.354       .  A
C920       C1853   1.482       .  S
C920        N921   1.364   1_554  A
C922       C1121   1.528       .  S
C922        N923   1.362       .  A
C922        N927   1.387   1_455  A
N923        C924   1.356   1_455  A
C924       C1160   1.480       .  S
C924        N925   1.353       .  A
N925        C926   1.359       .  A
C926       C1940   1.518       .  S
C926        N927   1.388       .  A
C928       C1097   1.451       .  S
C928        N929   1.352   1_455  A
C928        N933   1.354       .  A
N929        C930   1.354       .  A
C930       C1952   1.464       .  S
C930        N931   1.354       .  A
N931        C932   1.350   1_655  A
C932       C1112   1.446       .  S
C932        N933   1.349       .  A
C934       C2456   1.485       .  S
C934        N935   1.355       .  A
C934        N939   1.369       .  A
N935        C936   1.350       .  A
C936       C1145   1.469       .  S
C936        N937   1.355   1_655  A
N937        C938   1.361       .  A
C938       C2273   1.490       .  S
C938        N939   1.369   1_455  A
C940       C2444   1.474       .  S
C940        N941   1.366       .  A
C940        N945   1.356       .  A
N941        C942   1.368       .  A
C942       C2288   1.490   1_655  S
C942        N943   1.357       .  A
N943        C944   1.356       .  A
C944       C1085   1.467       .  S
C944        N945   1.351       .  A
N946        C951   1.354       .  A
N946        C950   1.358       .  A
N946        H978   1.040       .  S
N947        C954   1.351   1_545  A
N947        C955   1.349       .  A
N948        C953   1.358       .  A
N948        C952   1.349       .  A
N948        H979   1.039   1_545  S
N949        C956   1.345       .  A
N949        C957   1.347       .  A
C950        C958   1.384       .  A
C950        C966   1.415       .  A
C951        C967   1.421   1_455  A
C951        C959   1.389       .  A
C952        C960   1.390       .  A
C952        C969   1.416   1_655  A
C953        C968   1.410   1_545  A
C953        C961   1.384       .  A
C954        C966   1.410       .  A
C954        C962   1.382   1_565  A
C955        C969   1.407       .  A
C955        C963   1.388       .  A
C956        C964   1.389       .  A
C956        C967   1.410       .  A
C957        C965   1.380       .  A
C957        C968   1.399       .  A
C958        C959   1.370       .  A
C958        H970   1.082       .  S
C959        H971   1.081       .  S
C960        C961   1.367       .  A
C960        H972   1.083       .  S
C961        H973   1.080       .  S
C962        C963   1.374       .  A
C962        H974   1.082       .  S
C963        H975   1.082       .  S
C964        C965   1.377       .  A
C964        H976   1.082       .  S
C965        H977   1.082       .  S
C966       C1208   1.501       .  S
C967       C1172   1.491       .  S
C968       C1292   1.498       .  S
C969       C1109   1.477       .  S
N980        C985   1.346       .  A
N980        C984   1.345       .  A
N980       H1012   1.031       .  S
N981        C988   1.353       .  A
N981        C989   1.353       .  A
N982        C987   1.347   1_565  A
N982        C986   1.349       .  A
N982       H1013   1.029   1_565  S
N983        C990   1.355       .  A
N983        C991   1.354       .  A
C984        C992   1.384       .  A
C984       C1000   1.402   1_545  A
C985       C1001   1.403       .  A
C985        C993   1.386       .  A
C986        C994   1.385       .  A
C986       C1003   1.407       .  A
C987       C1002   1.406       .  A
C987        C995   1.386   1_545  A
C988       C1000   1.409       .  A
C988        C996   1.382       .  A
C989       C1003   1.417   1_655  A
C989        C997   1.389       .  A
C990        C998   1.387       .  A
C990       C1001   1.417   1_455  A
C991        C999   1.386       .  A
C991       C1002   1.414       .  A
C992        C993   1.378       .  A
C992       H1004   1.082       .  S
C993       H1005   1.082       .  S
C994        C995   1.381       .  A
C994       H1006   1.082       .  S
C995       H1007   1.082       .  S
C996        C997   1.362       .  A
C996       H1008   1.082       .  S
C997       H1009   1.078       .  S
C998        C999   1.366       .  A
C998       H1010   1.080       .  S
C999       H1011   1.082       .  S
C1000      C1364   1.483       .  S
C1001      C1088   1.487       .  S
C1002      C1073   1.483       .  S
C1003      C1388   1.490       .  S
C1014      C2261   1.478       .  S
C1014      N1015   1.372   1_545  A
C1014      N1019   1.355       .  A
N1015      C1016   1.369       .  A
C1016      C2156   1.486       .  S
C1016      N1017   1.355       .  A
N1017      C1018   1.349       .  A
C1018      C1256   1.460       .  S
C1018      N1019   1.350   1_565  A
C1020      C2168   1.487       .  S
C1020      N1021   1.370   1_565  A
C1020      N1025   1.352       .  A
N1021      C1022   1.371       .  A
C1022      C2249   1.480       .  S
C1022      N1023   1.359       .  A
N1023      C1024   1.352       .  A
C1024      C1076   1.463       .  S
C1024      N1025   1.348   1_545  A
O1026      C1053   1.271       .  A
O1026     Mn1052   2.083       .  S
C1027      O1060   1.269       .  A
C1027      O1057   1.271       .  A
C1027      C1220   1.477       .  S
O1028     Mn1035   2.161       .  S
O1028     Mn1046   2.131       .  S
O1028     Mn1050   2.153       .  S
O1028     Mn1052   2.116       .  S
O1029      C1039   1.270       .  A
O1029     Mn1063   2.069       .  S
O1030      C1053   1.267       .  A
O1030     Mn1046   2.070       .  S
O1031      C1058   1.261       .  A
O1031     Mn1050   2.137       .  S
O1032     Mn1063   1.979       .  S
O1032     Mn1052   1.944       .  S
O1032      C1048   1.226       .  S
C1033      O1036   1.260       .  A
C1033      C1748   1.522       .  S
C1033      O1059   1.228       .  S
O1034     Mn1054   2.114       .  S
O1034     Mn1035   2.162       .  S
O1034     Mn1068   2.118       .  S
O1034     Mn1050   2.148       .  S
Mn1035     O1064   2.170       .  S
Mn1035     O1040   2.154       .  S
Mn1035     O1067   2.173       .  S
Mn1035     O1041   2.158       .  S
O1036     Mn1050   2.137       .  S
O1037      C1039   1.267       .  A
O1037     Mn1044   2.081       .  S
C1038      O1064   1.268       .  A
C1038      C1337   1.529       .  S
C1038      O1051   1.226       .  S
C1039      C1772   1.472       .  S
O1040      C1065   1.267       .  A
O1041     Mn1044   2.110       .  S
O1041     Mn1063   2.112       .  S
O1041     Mn1050   2.157       .  S
O1042     Mn1046   1.962       .  S
O1042     Mn1068   2.000       .  S
O1042      C1065   1.234       .  S
C1043      O1069   1.271       .  A
C1043      O1045   1.269       .  A
C1043      C1700   1.477       .  S
Mn1044     O1057   2.080       .  S
Mn1044     O1059   1.952       .  S
Mn1044     O1051   1.989       .  S
O1045     Mn1068   2.083       .  S
Mn1046     O1062   2.078       .  S
Mn1046     O1056   1.988       .  S
O1047      C1049   1.267       .  A
O1047     Mn1052   2.051       .  S
C1048      O1066   1.259       .  A
C1048      C1484   1.524       .  S
C1049      O1062   1.268       .  A
C1049      C1100   1.465       .  S
Mn1050     O1066   2.139       .  S
O1051     Mn1054   1.958       .  S
Mn1052     O1070   1.993       .  S
C1053      C1460   1.480       .  S
Mn1054     O1061   2.072       .  S
Mn1054     O1069   2.074       .  S
Mn1054     O1059   1.978       .  S
C1055      O1061   1.265       .  A
C1055      O1071   1.270       .  A
C1055      C1316   1.475       .  S
O1056     Mn1068   1.953       .  S
O1056      C1058   1.233       .  S
C1058      C1724   1.533       .  S
O1060     Mn1063   2.072       .  S
Mn1063     O1070   1.954       .  S
C1065      C1124   1.542       .  S
O1067      C1072   1.271       .  A
Mn1068     O1071   2.072       .  S
O1070      C1072   1.229       .  S
C1072      C1196   1.538       .  S
C1073      C1074   1.404       .  A
C1073      C1078   1.411       .  A
C1074      C1075   1.389       .  A
C1074      H1083   1.084       .  S
C1075      C1076   1.406       .  A
C1075      S1079   1.804   1_545  S
C1076      C1077   1.404       .  A
C1077      C1078   1.404       .  A
C1077      H1084   1.084       .  S
C1078      S1080   1.800       .  S
S1079      H1082   1.406   1_565  S
S1080      H1081   1.403       .  S
C1085      C1086   1.404       .  A
C1085      C1090   1.407       .  A
C1086      C1087   1.399       .  A
C1086      H1095   1.084       .  S
C1087      C1088   1.408       .  A
C1087      S1091   1.802       .  S
C1088      C1089   1.409       .  A
C1089      C1090   1.394       .  A
C1089      H1096   1.084       .  S
C1090      S1092   1.801       .  S
S1091      H1094   1.406       .  S
S1092      H1093   1.404       .  S
C1097      C1098   1.398       .  A
C1097      C1102   1.404       .  A
C1098      C1099   1.390       .  A
C1098      H1107   1.084       .  S
C1099      C1100   1.416       .  A
C1099      S1103   1.803       .  S
C1100      C1101   1.406       .  A
C1101      C1102   1.388       .  A
C1101      H1108   1.084       .  S
C1102      S1104   1.804       .  S
S1103      H1106   1.408       .  S
S1104      H1105   1.407       .  S
C1109      C1110   1.406       .  A
C1109      C1114   1.407       .  A
C1110      C1111   1.383       .  A
C1110      H1119   1.085       .  S
C1111      C1112   1.401       .  A
C1111      S1115   1.808   1_455  S
C1112      C1113   1.404       .  A
C1113      C1114   1.400       .  A
C1113      H1120   1.084       .  S
C1114      S1116   1.804       .  S
S1115      H1118   1.404   1_655  S
S1116      H1117   1.402       .  S
C1121      C1122   1.412       .  A
C1121      C1126   1.422       .  A
C1122      C1123   1.429       .  A
C1122      H1131   1.083       .  S
C1123      C1124   1.430       .  A
C1123      S1127   1.797       .  S
C1124      C1125   1.412       .  A
C1125      C1126   1.414       .  A
C1125      H1132   1.083       .  S
C1126      S1128   1.805       .  S
S1127      H1130   1.407       .  S
S1128      H1129   1.407       .  S
C1133      C1134   1.403       .  A
C1133      C1138   1.404       .  A
C1134      C1135   1.387       .  A
C1134      H1143   1.084       .  S
C1135      C1136   1.406       .  A
C1135      S1139   1.805   1_556  S
C1136      C1137   1.404       .  A
C1137      C1138   1.402       .  A
C1137      H1144   1.083       .  S
C1138      S1140   1.803       .  S
S1139      H1142   1.406   1_554  S
S1140      H1141   1.407       .  S
C1145      C1146   1.405       .  A
C1145      C1150   1.408       .  A
C1146      C1147   1.402       .  A
C1146      H1155   1.084       .  S
C1147      C1148   1.410       .  A
C1147      S1151   1.794       .  S
C1148      C1149   1.405       .  A
C1149      C1150   1.395       .  A
C1149      H1156   1.084       .  S
C1150      S1152   1.803   1_655  S
S1151      H1154   1.399       .  S
S1152      H1153   1.403       .  S
C1157      C1158   1.402       .  A
C1157      C1162   1.420       .  A
C1158      C1159   1.406       .  A
C1158      H1167   1.083       .  S
C1159      C1160   1.412       .  A
C1159      S1163   1.804       .  S
C1160      C1161   1.400       .  A
C1161      C1162   1.402       .  A
C1161      H1168   1.084       .  S
C1162      S1164   1.809       .  S
S1163      H1166   1.407       .  S
S1164      H1165   1.401       .  S
C1169      C1170   1.407   1_655  A
C1169      C1174   1.412       .  A
C1170      C1171   1.397       .  A
C1170      H1179   1.084       .  S
C1171      C1172   1.413   1_455  A
C1171      S1175   1.805       .  S
C1172      C1173   1.408       .  A
C1173      C1174   1.395       .  A
C1173      H1180   1.084       .  S
C1174      S1176   1.800       .  S
S1175      H1178   1.401       .  S
S1176      H1177   1.408       .  S
C1181      C1182   1.406       .  A
C1181      C1186   1.409       .  A
C1182      C1183   1.392       .  A
C1182      H1191   1.084       .  S
C1183      C1184   1.408       .  A
C1183      S1187   1.800       .  S
C1184      C1185   1.407       .  A
C1185      C1186   1.403       .  A
C1185      H1192   1.084       .  S
C1186      S1188   1.802       .  S
S1187      H1190   1.402       .  S
S1188      H1189   1.407       .  S
C1193      C1194   1.414       .  A
C1193      C1198   1.424       .  A
C1194      C1195   1.411       .  A
C1194      H1203   1.084       .  S
C1195      C1196   1.423       .  A
C1195      S1199   1.803       .  S
C1196      C1197   1.420       .  A
C1197      C1198   1.433       .  A
C1197      H1204   1.083       .  S
C1198      S1200   1.797       .  S
S1199      H1202   1.404       .  S
S1200      H1201   1.405       .  S
C1205      C1206   1.399   1_565  A
C1205      C1210   1.416       .  A
C1206      C1207   1.395       .  A
C1206      H1215   1.084       .  S
C1207      C1208   1.415   1_545  A
C1207      S1211   1.795       .  S
C1208      C1209   1.406       .  A
C1209      C1210   1.413       .  A
C1209      H1216   1.082       .  S
C1210      S1212   1.806       .  S
S1211      H1214   1.405   1_545  S
S1212      H1213   1.407       .  S
C1217      C1218   1.400       .  A
C1217      C1222   1.401       .  A
C1218      C1219   1.391       .  A
C1218      H1227   1.085       .  S
C1219      C1220   1.413       .  A
C1219      S1223   1.802       .  S
C1220      C1221   1.413       .  A
C1221      C1222   1.391       .  A
C1221      H1228   1.083       .  S
C1222      S1224   1.801       .  S
S1223      H1226   1.408       .  S
S1224      H1225   1.405       .  S
C1229      C1230   1.407       .  A
C1229      C1234   1.405       .  A
C1230      C1231   1.397       .  A
C1230      H1239   1.083       .  S
C1231      C1232   1.401       .  A
C1231      S1235   1.806       .  S
C1232      C1233   1.409       .  A
C1233      C1234   1.394       .  A
C1233      H1240   1.084       .  S
C1234      S1236   1.803   1_554  S
S1235      H1238   1.407       .  S
S1236      H1237   1.405   1_556  S
C1241      C1242   1.402       .  A
C1241      C1246   1.418       .  A
C1242      C1243   1.405       .  A
C1242      H1251   1.083       .  S
C1243      C1244   1.414       .  A
C1243      S1247   1.803       .  S
C1244      C1245   1.393       .  A
C1245      C1246   1.392       .  A
C1245      H1252   1.084       .  S
C1246      S1248   1.807       .  S
S1247      H1250   1.406       .  S
S1248      H1249   1.407       .  S
C1253      C1254   1.405   1_565  A
C1253      C1258   1.417       .  A
C1254      C1255   1.404       .  A
C1254      H1263   1.084       .  S
C1255      C1256   1.412   1_545  A
C1255      S1259   1.802       .  S
C1256      C1257   1.389       .  A
C1257      C1258   1.385       .  A
C1257      H1264   1.085       .  S
C1258      S1260   1.792       .  S
S1259      H1262   1.407       .  S
S1260      H1261   1.406       .  S
C1265      C1266   1.406       .  A
C1265      C1270   1.406       .  A
C1266      C1267   1.408       .  A
C1266      H1275   1.083       .  S
C1267      C1268   1.406       .  A
C1267      S1271   1.800       .  S
C1268      C1269   1.403       .  A
C1269      C1270   1.391       .  A
C1269      H1276   1.082   1_554  S
C1270      S1272   1.807   1_554  S
S1271      H1274   1.406       .  S
S1272      H1273   1.405   1_556  S
C1277      C1278   1.410       .  A
C1277      C1282   1.419       .  A
C1278      C1279   1.405       .  A
C1278      H1287   1.083       .  S
C1279      C1280   1.408       .  A
C1279      S1283   1.801   1_545  S
C1280      C1281   1.396       .  A
C1281      C1282   1.388       .  A
C1281      H1288   1.084       .  S
C1282      S1284   1.807       .  S
S1283      H1286   1.406   1_565  S
S1284      H1285   1.407       .  S
C1289      C1290   1.404   1_565  A
C1289      C1294   1.406       .  A
C1290      C1291   1.408   1_545  A
C1290      H1299   1.083       .  S
C1291      C1292   1.410       .  A
C1291      S1295   1.799   1_565  S
C1292      C1293   1.408       .  A
C1293      C1294   1.400       .  A
C1293      H1300   1.083       .  S
C1294      S1296   1.807       .  S
S1295      H1298   1.406       .  S
S1296      H1297   1.407       .  S
C1301      C1302   1.392       .  A
C1301      C1306   1.413       .  A
C1302      C1303   1.391       .  A
C1302      H1311   1.084       .  S
C1303      C1304   1.418       .  A
C1303      S1307   1.806       .  S
C1304      C1305   1.405       .  A
C1305      C1306   1.406       .  A
C1305      H1312   1.084       .  S
C1306      S1308   1.803       .  S
S1307      H1310   1.406       .  S
S1308      H1309   1.405       .  S
C1313      C1314   1.397       .  A
C1313      C1318   1.409       .  A
C1314      C1315   1.392       .  A
C1314      H1323   1.083       .  S
C1315      C1316   1.422       .  A
C1315      S1319   1.811       .  S
C1316      C1317   1.406       .  A
C1317      C1318   1.392       .  A
C1317      H1324   1.084       .  S
C1318      S1320   1.805       .  S
S1319      H1322   1.407       .  S
S1320      H1321   1.407       .  S
C1325      C1326   1.399   1_554  A
C1325      C1330   1.409       .  A
C1326      C1327   1.378   1_556  A
C1326      H1335   1.083       .  S
C1327      C1328   1.412       .  A
C1327      S1331   1.806   1_554  S
C1328      C1329   1.408       .  A
C1329      C1330   1.402       .  A
C1329      H1336   1.082       .  S
C1330      S1332   1.802       .  S
S1331      H1334   1.407   1_556  S
S1332      H1333   1.406       .  S
C1337      C1338   1.419       .  A
C1337      C1342   1.420       .  A
C1338      C1339   1.431       .  A
C1338      H1347   1.083       .  S
C1339      C1340   1.423       .  A
C1339      S1343   1.794       .  S
C1340      C1341   1.417       .  A
C1341      C1342   1.411       .  A
C1341      H1348   1.081       .  S
C1342      S1344   1.814       .  S
S1343      H1346   1.407       .  S
S1344      H1345   1.406       .  S
C1349      C1350   1.403       .  A
C1349      C1354   1.423       .  A
C1350      C1351   1.405       .  A
C1350      H1359   1.083       .  S
C1351      C1352   1.414       .  A
C1351      S1355   1.803       .  S
C1352      C1353   1.396       .  A
C1353      C1354   1.396       .  A
C1353      H1360   1.084   1_556  S
C1354      S1356   1.810       .  S
S1355      H1358   1.405   1_556  S
S1356      H1357   1.399   1_556  S
C1361      C1362   1.402       .  A
C1361      C1366   1.406   1_565  A
C1362      C1363   1.400       .  A
C1362      H1371   1.084       .  S
C1363      C1364   1.412       .  A
C1363      S1367   1.801       .  S
C1364      C1365   1.407   1_565  A
C1365      C1366   1.392       .  A
C1365      H1372   1.084       .  S
C1366      S1368   1.805       .  S
S1367      H1370   1.402       .  S
S1368      H1369   1.407   1_545  S
C1373      C1374   1.398       .  A
C1373      C1378   1.412       .  A
C1374      C1375   1.396       .  A
C1374      H1383   1.083       .  S
C1375      C1376   1.417       .  A
C1375      S1379   1.807       .  S
C1376      C1377   1.404       .  A
C1377      C1378   1.400       .  A
C1377      H1384   1.084   1_545  S
C1378      S1380   1.803   1_545  S
S1379      H1382   1.407       .  S
S1380      H1381   1.407   1_565  S
C1385      C1386   1.403       .  A
C1385      C1390   1.406       .  A
C1386      C1387   1.401       .  A
C1386      H1395   1.084   1_455  S
C1387      C1388   1.411       .  A
C1387      S1391   1.799   1_455  S
C1388      C1389   1.407       .  A
C1389      C1390   1.394       .  A
C1389      H1396   1.083       .  S
C1390      S1392   1.803       .  S
S1391      H1394   1.405   1_655  S
S1392      H1393   1.406       .  S
C1397      C1398   1.405       .  A
C1397      C1402   1.408       .  A
C1398      C1399   1.400       .  A
C1398      H1407   1.084       .  S
C1399      C1400   1.415       .  A
C1399      S1403   1.805   1_655  S
C1400      C1401   1.408       .  A
C1401      C1402   1.392       .  A
C1401      H1408   1.082       .  S
C1402      S1404   1.800       .  S
S1403      H1406   1.400       .  S
S1404      H1405   1.407       .  S
C1409      C1410   1.407   1_554  A
C1409      C1414   1.415       .  A
C1410      C1411   1.403       .  A
C1410      H1419   1.084       .  S
C1411      C1412   1.415   1_556  A
C1411      S1415   1.807       .  S
C1412      C1413   1.406       .  A
C1413      C1414   1.397       .  A
C1413      H1420   1.079       .  S
C1414      S1416   1.812       .  S
S1415      H1418   1.401       .  S
S1416      H1417   1.407       .  S
C1421      C1422   1.401       .  A
C1421      C1426   1.415   1_554  A
C1422      C1423   1.402       .  A
C1422      H1431   1.084       .  S
C1423      C1424   1.415   1_554  A
C1423      S1427   1.803       .  S
C1424      C1425   1.395       .  A
C1425      C1426   1.390       .  A
C1425      H1432   1.084       .  S
C1426      S1428   1.809       .  S
S1427      H1430   1.406       .  S
S1428      H1429   1.407       .  S
C1433      C1434   1.407       .  A
C1433      C1438   1.407       .  A
C1434      C1435   1.392       .  A
C1434      H1443   1.085       .  S
C1435      C1436   1.407       .  A
C1435      S1439   1.807       .  S
C1436      C1437   1.405       .  A
C1437      C1438   1.402       .  A
C1437      H1444   1.084       .  S
C1438      S1440   1.803       .  S
S1439      H1442   1.403       .  S
S1440      H1441   1.405       .  S
C1445      C1446   1.402       .  A
C1445      C1450   1.407       .  A
C1446      C1447   1.391       .  A
C1446      H1455   1.085       .  S
C1447      C1448   1.407       .  A
C1447      S1451   1.798       .  S
C1448      C1449   1.402       .  A
C1449      C1450   1.398       .  A
C1449      H1456   1.083       .  S
C1450      S1452   1.803       .  S
S1451      H1454   1.407       .  S
S1452      H1453   1.406       .  S
C1457      C1458   1.398       .  A
C1457      C1462   1.406       .  A
C1458      C1459   1.389       .  A
C1458      H1467   1.085       .  S
C1459      C1460   1.417       .  A
C1459      S1463   1.798       .  S
C1460      C1461   1.409       .  A
C1461      C1462   1.396       .  A
C1461      H1468   1.081       .  S
C1462      S1464   1.807       .  S
S1463      H1466   1.400       .  S
S1464      H1465   1.406       .  S
C1469      C1470   1.401       .  A
C1469      C1474   1.401       .  A
C1470      C1471   1.397       .  A
C1470      H1479   1.084       .  S
C1471      C1472   1.409       .  A
C1471      S1475   1.800       .  S
C1472      C1473   1.407       .  A
C1473      C1474   1.387       .  A
C1473      H1480   1.083       .  S
C1474      S1476   1.802       .  S
S1475      H1478   1.406       .  S
S1476      H1477   1.407       .  S
C1481      C1482   1.409       .  A
C1481      C1486   1.415       .  A
C1482      C1483   1.420       .  A
C1482      H1491   1.083       .  S
C1483      C1484   1.426       .  A
C1483      S1487   1.798       .  S
C1484      C1485   1.412       .  A
C1485      C1486   1.407       .  A
C1485      H1492   1.083       .  S
C1486      S1488   1.805       .  S
S1487      H1490   1.402       .  S
S1488      H1489   1.405       .  S
C1493      C1494   1.396       .  A
C1493      C1498   1.411       .  A
C1494      C1495   1.393       .  A
C1494      H1503   1.084       .  S
C1495      C1496   1.412       .  A
C1495      S1499   1.808       .  S
C1496      C1497   1.399       .  A
C1497      C1498   1.395       .  A
C1497      H1504   1.084       .  S
C1498      S1500   1.805       .  S
S1499      H1502   1.407       .  S
S1500      H1501   1.406       .  S
C1505      C1506   1.405       .  A
C1505      C1510   1.406       .  A
C1506      C1507   1.405       .  A
C1506      H1515   1.084       .  S
C1507      C1508   1.411       .  A
C1507      S1511   1.797       .  S
C1508      C1509   1.408       .  A
C1509      C1510   1.392       .  A
C1509      H1516   1.084       .  S
C1510      S1512   1.803       .  S
S1511      H1514   1.402       .  S
S1512      H1513   1.406       .  S
C1517      C1518   1.403       .  A
C1517      C1522   1.412       .  A
C1518      C1519   1.400       .  A
C1518      H1527   1.083       .  S
C1519      C1520   1.415       .  A
C1519      S1523   1.804       .  S
C1520      C1521   1.403       .  A
C1521      C1522   1.404       .  A
C1521      H1528   1.083       .  S
C1522      S1524   1.807       .  S
S1523      H1526   1.406       .  S
S1524      H1525   1.407       .  S
C1529      C1530   1.402       .  A
C1529      C1534   1.410       .  A
C1530      C1531   1.393       .  A
C1530      H1539   1.085       .  S
C1531      C1532   1.414       .  A
C1531      S1535   1.805       .  S
C1532      C1533   1.404       .  A
C1533      C1534   1.399       .  A
C1533      H1540   1.084       .  S
C1534      S1536   1.802       .  S
S1535      H1538   1.407       .  S
S1536      H1537   1.407       .  S
C1541      C1542   1.399       .  A
C1541      C1546   1.415       .  A
C1542      C1543   1.397       .  A
C1542      H1551   1.083       .  S
C1543      C1544   1.416       .  A
C1543      S1547   1.805       .  S
C1544      C1545   1.401       .  A
C1545      C1546   1.396       .  A
C1545      H1552   1.084       .  S
C1546      S1548   1.803       .  S
S1547      H1550   1.407       .  S
S1548      H1549   1.407       .  S
C1553      C1554   1.394       .  A
C1553      C1558   1.412       .  A
C1554      C1555   1.394       .  A
C1554      H1563   1.083       .  S
C1555      C1556   1.421       .  A
C1555      S1559   1.813       .  S
C1556      C1557   1.403       .  A
C1557      C1558   1.401       .  A
C1557      H1564   1.083       .  S
C1558      S1560   1.804       .  S
S1559      H1562   1.406       .  S
S1560      H1561   1.402       .  S
C1565      C1566   1.400       .  A
C1565      C1570   1.412       .  A
C1566      C1567   1.393       .  A
C1566      H1575   1.083       .  S
C1567      C1568   1.413       .  A
C1567      S1571   1.808       .  S
C1568      C1569   1.403       .  A
C1569      C1570   1.400       .  A
C1569      H1576   1.084       .  S
C1570      S1572   1.799       .  S
S1571      H1574   1.406       .  S
S1572      H1573   1.406       .  S
C1577      C1578   1.405       .  A
C1577      C1582   1.405       .  A
C1578      C1579   1.403       .  A
C1578      H1587   1.084       .  S
C1579      C1580   1.409       .  A
C1579      S1583   1.803       .  S
C1580      C1581   1.407       .  A
C1581      C1582   1.388       .  A
C1581      H1588   1.084       .  S
C1582      S1584   1.806       .  S
S1583      H1586   1.404       .  S
S1584      H1585   1.404       .  S
C1589      C1590   1.396       .  A
C1589      C1594   1.414       .  A
C1590      C1591   1.399       .  A
C1590      H1599   1.083       .  S
C1591      C1592   1.418       .  A
C1591      S1595   1.809       .  S
C1592      C1593   1.404       .  A
C1593      C1594   1.405       .  A
C1593      H1600   1.083       .  S
C1594      S1596   1.803       .  S
S1595      H1598   1.406       .  S
S1596      H1597   1.407       .  S
C1601      C1602   1.400       .  A
C1601      C1606   1.414       .  A
C1602      C1603   1.395       .  A
C1602      H1611   1.084       .  S
C1603      C1604   1.411       .  A
C1603      S1607   1.804       .  S
C1604      C1605   1.394       .  A
C1605      C1606   1.392       .  A
C1605      H1612   1.083       .  S
C1606      S1608   1.808       .  S
S1607      H1610   1.407       .  S
S1608      H1609   1.406       .  S
C1613      C1614   1.396       .  A
C1613      C1618   1.416       .  A
C1614      C1615   1.399       .  A
C1614      H1623   1.083       .  S
C1615      C1616   1.417       .  A
C1615      S1619   1.805       .  S
C1616      C1617   1.402       .  A
C1617      C1618   1.405       .  A
C1617      H1624   1.084       .  S
C1618      S1620   1.804       .  S
S1619      H1622   1.406       .  S
S1620      H1621   1.405       .  S
C1625      C1626   1.402       .  A
C1625      C1630   1.423       .  A
C1626      C1627   1.402       .  A
C1626      H1635   1.084       .  S
C1627      C1628   1.414       .  A
C1627      S1631   1.804       .  S
C1628      C1629   1.393       .  A
C1629      C1630   1.392       .  A
C1629      H1636   1.085       .  S
C1630      S1632   1.806       .  S
S1631      H1634   1.405       .  S
S1632      H1633   1.399       .  S
C1637      C1638   1.409       .  A
C1637      C1642   1.408       .  A
C1638      C1639   1.387       .  A
C1638      H1647   1.083       .  S
C1639      C1640   1.402       .  A
C1639      S1643   1.807       .  S
C1640      C1641   1.404       .  A
C1641      C1642   1.399       .  A
C1641      H1648   1.084       .  S
C1642      S1644   1.803       .  S
S1643      H1646   1.406       .  S
S1644      H1645   1.406       .  S
C1649      C1650   1.400       .  A
C1649      C1654   1.413       .  A
C1650      C1651   1.402       .  A
C1650      H1659   1.083       .  S
C1651      C1652   1.413       .  A
C1651      S1655   1.804       .  S
C1652      C1653   1.400       .  A
C1653      C1654   1.397       .  A
C1653      H1660   1.084       .  S
C1654      S1656   1.803       .  S
S1655      H1658   1.407       .  S
S1656      H1657   1.407       .  S
C1661      C1662   1.406       .  A
C1661      C1666   1.409       .  A
C1662      C1663   1.396       .  A
C1662      H1671   1.084       .  S
C1663      C1664   1.408       .  A
C1663      S1667   1.803       .  S
C1664      C1665   1.407       .  A
C1665      C1666   1.397       .  A
C1665      H1672   1.084       .  S
C1666      S1668   1.804       .  S
S1667      H1670   1.405       .  S
S1668      H1669   1.406       .  S
C1673      C1674   1.408       .  A
C1673      C1678   1.415       .  A
C1674      C1675   1.408       .  A
C1674      H1683   1.083       .  S
C1675      C1676   1.408       .  A
C1675      S1679   1.804       .  S
C1676      C1677   1.399       .  A
C1677      C1678   1.388       .  A
C1677      H1684   1.082       .  S
C1678      S1680   1.812       .  S
S1679      H1682   1.407       .  S
S1680      H1681   1.407       .  S
C1685      C1686   1.407       .  A
C1685      C1690   1.404       .  A
C1686      C1687   1.406       .  A
C1686      H1695   1.084       .  S
C1687      C1688   1.410       .  A
C1687      S1691   1.801       .  S
C1688      C1689   1.405       .  A
C1689      C1690   1.388       .  A
C1689      H1696   1.085       .  S
C1690      S1692   1.803       .  S
S1691      H1694   1.405       .  S
S1692      H1693   1.407       .  S
C1697      C1698   1.396       .  A
C1697      C1702   1.403       .  A
C1698      C1699   1.392       .  A
C1698      H1707   1.081       .  S
C1699      C1700   1.420       .  A
C1699      S1703   1.812       .  S
C1700      C1701   1.408       .  A
C1701      C1702   1.397       .  A
C1701      H1708   1.083       .  S
C1702      S1704   1.805       .  S
S1703      H1706   1.407       .  S
S1704      H1705   1.408       .  S
C1709      C1710   1.403       .  A
C1709      C1714   1.402       .  A
C1710      C1711   1.403       .  A
C1710      H1719   1.083       .  S
C1711      C1712   1.408       .  A
C1711      S1715   1.805       .  S
C1712      C1713   1.407       .  A
C1713      C1714   1.389       .  A
C1713      H1720   1.083       .  S
C1714      S1716   1.805       .  S
S1715      H1718   1.407       .  S
S1716      H1717   1.406       .  S
C1721      C1722   1.411       .  A
C1721      C1726   1.418       .  A
C1722      C1723   1.427       .  A
C1722      H1731   1.083       .  S
C1723      C1724   1.431       .  A
C1723      S1727   1.800       .  S
C1724      C1725   1.409       .  A
C1725      C1726   1.408       .  A
C1725      H1732   1.083       .  S
C1726      S1728   1.804       .  S
S1727      H1730   1.405       .  S
S1728      H1729   1.407       .  S
C1733      C1734   1.406       .  A
C1733      C1738   1.410       .  A
C1734      C1735   1.401       .  A
C1734      H1743   1.082       .  S
C1735      C1736   1.413       .  A
C1735      S1739   1.801       .  S
C1736      C1737   1.405       .  A
C1737      C1738   1.402       .  A
C1737      H1744   1.083       .  S
C1738      S1740   1.807       .  S
S1739      H1742   1.407       .  S
S1740      H1741   1.407       .  S
C1745      C1746   1.408       .  A
C1745      C1750   1.413       .  A
C1746      C1747   1.420       .  A
C1746      H1755   1.083       .  S
C1747      C1748   1.425       .  A
C1747      S1751   1.798       .  S
C1748      C1749   1.411       .  A
C1749      C1750   1.410       .  A
C1749      H1756   1.082       .  S
C1750      S1752   1.808       .  S
S1751      H1754   1.406       .  S
S1752      H1753   1.407       .  S
C1757      C1758   1.404       .  A
C1757      C1762   1.415       .  A
C1758      C1759   1.400       .  A
C1758      H1767   1.084       .  S
C1759      C1760   1.413       .  A
C1759      S1763   1.805       .  S
C1760      C1761   1.405       .  A
C1761      C1762   1.405       .  A
C1761      H1768   1.082       .  S
C1762      S1764   1.808       .  S
S1763      H1766   1.406       .  S
S1764      H1765   1.406       .  S
C1769      C1770   1.398       .  A
C1769      C1774   1.404       .  A
C1770      C1771   1.396       .  A
C1770      H1779   1.084       .  S
C1771      C1772   1.419       .  A
C1771      S1775   1.811       .  S
C1772      C1773   1.405       .  A
C1773      C1774   1.390       .  A
C1773      H1780   1.084       .  S
C1774      S1776   1.803       .  S
S1775      H1778   1.407       .  S
S1776      H1777   1.407       .  S
C1781      C1782   1.405       .  A
C1781      C1786   1.402       .  A
C1782      C1783   1.398       .  A
C1782      H1791   1.084       .  S
C1783      C1784   1.410       .  A
C1783      S1787   1.807       .  S
C1784      C1785   1.409       .  A
C1785      C1786   1.394       .  A
C1785      H1792   1.083       .  S
C1786      S1788   1.805       .  S
S1787      H1790   1.403       .  S
S1788      H1789   1.405       .  S
C1793      C1794   1.416       .  A
C1793      C1798   1.423       .  A
C1794      C1795   1.417       .  A
C1794      H1803   1.083       .  S
C1795      C1796   1.418       .  A
C1795      S1799   1.804       .  S
C1796      C1797   1.415       .  A
C1797      C1798   1.427       .  A
C1797      H1804   1.083       .  S
C1798      S1800   1.800       .  S
S1799      H1802   1.405       .  S
S1800      H1801   1.406       .  S
C1805      C1806   1.396       .  A
C1805      C1810   1.410       .  A
C1806      C1807   1.394       .  A
C1806      H1815   1.084       .  S
C1807      C1808   1.420       .  A
C1807      S1811   1.805       .  S
C1808      C1809   1.403       .  A
C1809      C1810   1.394       .  A
C1809      H1816   1.084       .  S
C1810      S1812   1.804       .  S
S1811      H1814   1.408       .  S
S1812      H1813   1.405       .  S
C1817      C1818   1.418       .  A
C1817      C1822   1.414       .  A
C1818      C1819   1.394       .  A
C1818      H1827   1.083       .  S
C1819      C1820   1.406       .  A
C1819      S1823   1.806       .  S
C1820      C1821   1.412       .  A
C1821      C1822   1.419       .  A
C1821      H1828   1.083       .  S
C1822      S1824   1.796       .  S
S1823      H1826   1.405       .  S
S1824      H1825   1.408       .  S
C1829      C1830   1.411       .  A
C1829      C1834   1.407       .  A
C1830      C1831   1.406       .  A
C1830      H1839   1.084       .  S
C1831      C1832   1.415       .  A
C1831      S1835   1.800       .  S
C1832      C1833   1.416       .  A
C1833      C1834   1.401       .  A
C1833      H1840   1.078       .  S
C1834      S1836   1.801       .  S
S1835      H1838   1.405       .  S
S1836      H1837   1.406       .  S
C1841      C1842   1.411       .  A
C1841      C1846   1.424       .  A
C1842      C1843   1.413       .  A
C1842      H1851   1.083       .  S
C1843      C1844   1.416       .  A
C1843      S1847   1.801       .  S
C1844      C1845   1.399       .  A
C1845      C1846   1.398       .  A
C1845      H1852   1.083       .  S
C1846      S1848   1.813       .  S
S1847      H1850   1.406       .  S
S1848      H1849   1.407       .  S
C1853      C1854   1.406       .  A
C1853      C1858   1.409       .  A
C1854      C1855   1.400       .  A
C1854      H1863   1.083       .  S
C1855      C1856   1.417       .  A
C1855      S1859   1.810       .  S
C1856      C1857   1.412       .  A
C1857      C1858   1.400       .  A
C1857      H1864   1.082       .  S
C1858      S1860   1.804       .  S
S1859      H1862   1.404       .  S
S1860      H1861   1.407       .  S
C1865      C1866   1.410       .  A
C1865      C1870   1.418       .  A
C1866      C1867   1.401       .  A
C1866      H1875   1.083       .  S
C1867      C1868   1.410       .  A
C1867      S1871   1.805       .  S
C1868      C1869   1.409       .  A
C1869      C1870   1.413       .  A
C1869      H1876   1.084       .  S
C1870      S1872   1.802       .  S
S1871      H1874   1.405       .  S
S1872      H1873   1.404       .  S
C1877      C1878   1.413       .  A
C1877      C1882   1.418       .  A
C1878      C1879   1.399       .  A
C1878      H1887   1.083       .  S
C1879      C1880   1.408       .  A
C1879      S1883   1.804       .  S
C1880      C1881   1.404       .  A
C1881      C1882   1.404       .  A
C1881      H1888   1.084       .  S
C1882      S1884   1.798       .  S
S1883      H1886   1.406       .  S
S1884      H1885   1.407       .  S
C1889      C1890   1.420       .  A
C1889      C1894   1.418       .  A
C1890      C1891   1.434       .  A
C1890      H1899   1.083       .  S
C1891      C1892   1.424       .  A
C1891      S1895   1.798       .  S
C1892      C1893   1.416       .  A
C1893      C1894   1.410       .  A
C1893      H1900   1.081       .  S
C1894      S1896   1.811       .  S
S1895      H1898   1.406       .  S
S1896      H1897   1.407       .  S
C1901      C1902   1.408       .  A
C1901      C1906   1.422       .  A
C1902      C1903   1.391       .  A
C1902      H1911   1.084       .  S
C1903      C1904   1.410       .  A
C1903      S1907   1.802       .  S
C1904      C1905   1.401       .  A
C1905      C1906   1.400       .  A
C1905      H1912   1.083       .  S
C1906      S1908   1.812       .  S
S1907      H1910   1.407       .  S
S1908      H1909   1.407       .  S
C1913      C1914   1.409       .  A
C1913      C1918   1.428       .  A
C1914      C1915   1.409       .  A
C1914      H1923   1.083       .  S
C1915      C1916   1.413       .  A
C1915      S1919   1.801       .  S
C1916      C1917   1.395       .  A
C1917      C1918   1.394       .  A
C1917      H1924   1.085       .  S
C1918      S1920   1.805       .  S
S1919      H1922   1.404       .  S
S1920      H1921   1.408       .  S
C1925      C1926   1.402       .  A
C1925      C1930   1.421       .  A
C1926      C1927   1.401       .  A
C1926      H1935   1.084       .  S
C1927      C1928   1.412       .  A
C1927      S1931   1.801       .  S
C1928      C1929   1.397       .  A
C1929      C1930   1.397       .  A
C1929      H1936   1.084       .  S
C1930      S1932   1.807       .  S
S1931      H1934   1.407       .  S
S1932      H1933   1.408       .  S
C1937      C1938   1.412       .  A
C1937      C1942   1.427       .  A
C1938      C1939   1.409       .  A
C1938      H1947   1.083       .  S
C1939      C1940   1.417       .  A
C1939      S1943   1.802       .  S
C1940      C1941   1.413       .  A
C1941      C1942   1.427       .  A
C1941      H1948   1.083       .  S
C1942      S1944   1.798       .  S
S1943      H1946   1.407       .  S
S1944      H1945   1.408       .  S
C1949      C1950   1.407       .  A
C1949      C1954   1.417       .  A
C1950      C1951   1.391       .  A
C1950      H1959   1.082       .  S
C1951      C1952   1.409       .  A
C1951      S1955   1.810       .  S
C1952      C1953   1.402       .  A
C1953      C1954   1.395       .  A
C1953      H1960   1.083       .  S
C1954      S1956   1.811       .  S
S1955      H1958   1.406       .  S
S1956      H1957   1.406       .  S
C1961      C1962   1.409       .  A
C1961      C1966   1.416       .  A
C1962      C1963   1.415       .  A
C1962      H1971   1.083       .  S
C1963      C1964   1.420       .  A
C1963      S1967   1.798       .  S
C1964      C1965   1.410       .  A
C1965      C1966   1.400       .  A
C1965      H1972   1.084       .  S
C1966      S1968   1.805       .  S
S1967      H1970   1.404       .  S
S1968      H1969   1.407       .  S
C1973      C1974   1.394       .  A
C1973      C1978   1.415       .  A
C1974      C1975   1.405       .  A
C1974      H1983   1.083       .  S
C1975      C1976   1.432       .  A
C1975      S1979   1.812       .  S
C1976      C1977   1.406       .  A
C1977      C1978   1.401       .  A
C1977      H1984   1.084       .  S
C1978      S1980   1.804       .  S
S1979      H1982   1.407       .  S
S1980      H1981   1.407       .  S
C1985      C1986   1.411       .  A
C1985      C1990   1.403       .  A
C1986      C1987   1.415       .  A
C1986      H1995   1.083       .  S
C1987      C1988   1.412       .  A
C1987      S1991   1.797       .  S
C1988      C1989   1.415       .  A
C1989      C1990   1.391       .  A
C1989      H1996   1.083       .  S
C1990      S1992   1.804       .  S
S1991      H1994   1.405       .  S
S1992      H1993   1.405       .  S
C1997      C1998   1.407       .  A
C1997      C2002   1.410       .  A
C1998      C1999   1.405       .  A
C1998      H2007   1.084       .  S
C1999      C2000   1.415       .  A
C1999      S2003   1.798       .  S
C2000      C2001   1.408       .  A
C2001      C2002   1.395       .  A
C2001      H2008   1.084       .  S
C2002      S2004   1.803       .  S
S2003      H2006   1.406       .  S
S2004      H2005   1.406       .  S
C2009      C2010   1.409       .  A
C2009      C2014   1.417       .  A
C2010      C2011   1.422       .  A
C2010      H2019   1.083       .  S
C2011      C2012   1.426       .  A
C2011      S2015   1.798       .  S
C2012      C2013   1.413       .  A
C2013      C2014   1.410       .  A
C2013      H2020   1.083       .  S
C2014      S2016   1.805       .  S
S2015      H2018   1.408       .  S
S2016      H2017   1.406       .  S
C2021      C2022   1.400       .  A
C2021      C2026   1.406       .  A
C2022      C2023   1.397       .  A
C2022      H2031   1.083       .  S
C2023      C2024   1.418       .  A
C2023      S2027   1.812       .  S
C2024      C2025   1.404       .  A
C2025      C2026   1.390       .  A
C2025      H2032   1.084       .  S
C2026      S2028   1.803       .  S
S2027      H2030   1.407       .  S
S2028      H2029   1.406       .  S
C2033      C2034   1.411       .  A
C2033      C2038   1.416       .  A
C2034      C2035   1.397       .  A
C2034      H2043   1.082       .  S
C2035      C2036   1.406       .  A
C2035      S2039   1.799       .  S
C2036      C2037   1.409       .  A
C2037      C2038   1.412       .  A
C2037      H2044   1.084       .  S
C2038      S2040   1.798       .  S
S2039      H2042   1.404       .  S
S2040      H2041   1.407       .  S
C2045      C2046   1.404       .  A
C2045      C2050   1.418       .  A
C2046      C2047   1.405       .  A
C2046      H2055   1.084       .  S
C2047      C2048   1.414       .  A
C2047      S2051   1.803       .  S
C2048      C2049   1.397       .  A
C2049      C2050   1.397       .  A
C2049      H2056   1.084       .  S
C2050      S2052   1.812       .  S
S2051      H2054   1.405       .  S
S2052      H2053   1.407       .  S
C2057      C2058   1.404       .  A
C2057      C2062   1.417       .  A
C2058      C2059   1.402       .  A
C2058      H2067   1.082       .  S
C2059      C2060   1.423       .  A
C2059      S2063   1.813       .  S
C2060      C2061   1.410       .  A
C2061      C2062   1.414       .  A
C2061      H2068   1.083       .  S
C2062      S2064   1.796       .  S
S2063      H2066   1.406       .  S
S2064      H2065   1.407       .  S
C2069      C2070   1.405       .  A
C2069      C2074   1.433       .  A
C2070      C2071   1.400       .  A
C2070      H2079   1.084       .  S
C2071      C2072   1.412       .  A
C2071      S2075   1.801       .  S
C2072      C2073   1.396       .  A
C2073      C2074   1.406       .  A
C2073      H2080   1.083       .  S
C2074      S2076   1.812       .  S
S2075      H2078   1.407       .  S
S2076      H2077   1.407       .  S
C2081      C2082   1.404       .  A
C2081      C2086   1.432       .  A
C2082      C2083   1.406       .  A
C2082      H2091   1.083       .  S
C2083      C2084   1.412       .  A
C2083      S2087   1.798       .  S
C2084      C2085   1.392       .  A
C2085      C2086   1.394       .  A
C2085      H2092   1.084       .  S
C2086      S2088   1.815       .  S
S2087      H2090   1.405       .  S
S2088      H2089   1.406       .  S
C2093      C2094   1.408       .  A
C2093      C2098   1.417       .  A
C2094      C2095   1.397       .  A
C2094      H2103   1.074       .  S
C2095      C2096   1.409       .  A
C2095      S2099   1.797       .  S
C2096      C2097   1.411       .  A
C2097      C2098   1.407       .  A
C2097      H2104   1.084       .  S
C2098      S2100   1.801       .  S
S2099      H2102   1.408       .  S
S2100      H2101   1.407       .  S
C2105      C2106   1.413       .  A
C2105      C2110   1.416       .  A
C2106      C2107   1.383       .  A
C2106      H2115   1.084       .  S
C2107      C2108   1.404       .  A
C2107      S2111   1.807       .  S
C2108      C2109   1.407       .  A
C2109      C2110   1.411       .  A
C2109      H2116   1.083       .  S
C2110      S2112   1.800       .  S
S2111      H2114   1.407       .  S
S2112      H2113   1.404       .  S
C2117      C2118   1.395       .  A
C2117      C2122   1.415       .  A
C2118      C2119   1.399       .  A
C2118      H2127   1.085       .  S
C2119      C2120   1.430       .  A
C2119      S2123   1.805       .  S
C2120      C2121   1.406       .  A
C2121      C2122   1.405       .  A
C2121      H2128   1.084       .  S
C2122      S2124   1.803       .  S
S2123      H2126   1.408       .  S
S2124      H2125   1.407       .  S
C2129      C2130   1.406       .  A
C2129      C2134   1.413       .  A
C2130      C2131   1.388       .  A
C2130      H2139   1.083       .  S
C2131      C2132   1.405       .  A
C2131      S2135   1.804       .  S
C2132      C2133   1.405       .  A
C2133      C2134   1.403       .  A
C2133      H2140   1.084       .  S
C2134      S2136   1.802       .  S
S2135      H2138   1.402       .  S
S2136      H2137   1.407       .  S
C2141      C2142   1.412       .  A
C2141      C2146   1.416       .  A
C2142      C2143   1.398       .  A
C2142      H2151   1.083       .  S
C2143      C2144   1.408       .  A
C2143      S2147   1.802       .  S
C2144      C2145   1.407       .  A
C2145      C2146   1.407       .  A
C2145      H2152   1.083       .  S
C2146      S2148   1.807       .  S
S2147      H2150   1.405       .  S
S2148      H2149   1.407       .  S
C2153      C2154   1.409       .  A
C2153      C2158   1.421       .  A
C2154      C2155   1.392       .  A
C2154      H2163   1.083       .  S
C2155      C2156   1.411       .  A
C2155      S2159   1.808       .  S
C2156      C2157   1.407       .  A
C2157      C2158   1.416       .  A
C2157      H2164   1.083       .  S
C2158      S2160   1.797       .  S
S2159      H2162   1.407       .  S
S2160      H2161   1.408       .  S
C2165      C2166   1.418       .  A
C2165      C2170   1.415       .  A
C2166      C2167   1.403       .  A
C2166      H2175   1.083       .  S
C2167      C2168   1.408       .  A
C2167      S2171   1.800       .  S
C2168      C2169   1.408       .  A
C2169      C2170   1.402       .  A
C2169      H2176   1.084       .  S
C2170      S2172   1.794       .  S
S2171      H2174   1.406       .  S
S2172      H2173   1.405       .  S
C2177      C2178   1.407       .  A
C2177      C2182   1.426       .  A
C2178      C2179   1.409       .  A
C2178      H2187   1.084       .  S
C2179      C2180   1.414       .  A
C2179      S2183   1.803       .  S
C2180      C2181   1.396       .  A
C2181      C2182   1.400       .  A
C2181      H2188   1.084       .  S
C2182      S2184   1.813       .  S
S2183      H2186   1.406       .  S
S2184      H2185   1.407       .  S
C2189      C2190   1.407       .  A
C2189      C2194   1.411       .  A
C2190      C2191   1.407       .  A
C2190      H2199   1.084       .  S
C2191      C2192   1.421       .  A
C2191      S2195   1.803       .  S
C2192      C2193   1.412       .  A
C2193      C2194   1.403       .  A
C2193      H2200   1.083       .  S
C2194      S2196   1.801       .  S
S2195      H2198   1.408       .  S
S2196      H2197   1.407       .  S
C2201      C2202   1.396       .  A
C2201      C2206   1.407       .  A
C2202      C2203   1.398       .  A
C2202      H2211   1.084       .  S
C2203      C2204   1.424       .  A
C2203      S2207   1.809       .  S
C2204      C2205   1.410       .  A
C2205      C2206   1.403       .  A
C2205      H2212   1.083       .  S
C2206      S2208   1.801       .  S
S2207      H2210   1.406       .  S
S2208      H2209   1.406       .  S
C2213      C2214   1.413       .  A
C2213      C2218   1.414       .  A
C2214      C2215   1.401       .  A
C2214      H2223   1.083       .  S
C2215      C2216   1.407       .  A
C2215      S2219   1.800       .  S
C2216      C2217   1.403       .  A
C2217      C2218   1.401       .  A
C2217      H2224   1.083       .  S
C2218      S2220   1.801       .  S
S2219      H2222   1.405       .  S
S2220      H2221   1.407       .  S
C2225      C2226   1.412       .  A
C2225      C2230   1.428       .  A
C2226      C2227   1.411       .  A
C2226      H2235   1.083       .  S
C2227      C2228   1.419       .  A
C2227      S2231   1.805       .  S
C2228      C2229   1.414       .  A
C2229      C2230   1.430       .  A
C2229      H2236   1.083       .  S
C2230      S2232   1.798       .  S
S2231      H2234   1.406       .  S
S2232      H2233   1.408       .  S
C2237      C2238   1.412       .  A
C2237      C2242   1.410       .  A
C2238      C2239   1.390       .  A
C2238      H2247   1.081       .  S
C2239      C2240   1.407       .  A
C2239      S2243   1.805       .  S
C2240      C2241   1.406       .  A
C2241      C2242   1.392       .  A
C2241      H2248   1.082       .  S
C2242      S2244   1.802       .  S
S2243      H2246   1.407       .  S
S2244      H2245   1.408       .  S
C2249      C2250   1.408       .  A
C2249      C2254   1.406       .  A
C2250      C2251   1.413       .  A
C2250      H2259   1.083       .  S
C2251      C2252   1.418       .  A
C2251      S2255   1.798       .  S
C2252      C2253   1.410       .  A
C2253      C2254   1.394       .  A
C2253      H2260   1.083       .  S
C2254      S2256   1.804       .  S
S2255      H2258   1.406       .  S
S2256      H2257   1.406       .  S
C2261      C2262   1.394       .  A
C2261      C2266   1.416       .  A
C2262      C2263   1.397       .  A
C2262      H2271   1.085       .  S
C2263      C2264   1.427       .  A
C2263      S2267   1.804       .  S
C2264      C2265   1.408       .  A
C2265      C2266   1.409       .  A
C2265      H2272   1.084       .  S
C2266      S2268   1.803       .  S
S2267      H2270   1.402       .  S
S2268      H2269   1.407       .  S
C2273      C2274   1.408       .  A
C2273      C2278   1.411       .  A
C2274      C2275   1.415       .  A
C2274      H2283   1.083       .  S
C2275      C2276   1.419       .  A
C2275      S2279   1.797       .  S
C2276      C2277   1.410       .  A
C2277      C2278   1.396       .  A
C2277      H2284   1.084       .  S
C2278      S2280   1.806       .  S
S2279      H2282   1.406       .  S
S2280      H2281   1.407       .  S
C2285      C2286   1.410       .  A
C2285      C2290   1.429       .  A
C2286      C2287   1.412       .  A
C2286      H2295   1.082       .  S
C2287      C2288   1.416       .  A
C2287      S2291   1.808       .  S
C2288      C2289   1.397       .  A
C2289      C2290   1.400       .  A
C2289      H2296   1.084       .  S
C2290      S2292   1.803       .  S
S2291      H2294   1.407       .  S
S2292      H2293   1.408       .  S
C2297      C2298   1.409       .  A
C2297      C2302   1.428       .  A
C2298      C2299   1.410       .  A
C2298      H2307   1.083       .  S
C2299      C2300   1.414       .  A
C2299      S2303   1.801       .  S
C2300      C2301   1.395       .  A
C2301      C2302   1.401       .  A
C2301      H2308   1.084       .  S
C2302      S2304   1.810       .  S
S2303      H2306   1.406       .  S
S2304      H2305   1.407       .  S
C2309      C2310   1.406       .  A
C2309      C2314   1.421       .  A
C2310      C2311   1.409       .  A
C2310      H2319   1.083       .  S
C2311      C2312   1.414       .  A
C2311      S2315   1.801       .  S
C2312      C2313   1.396       .  A
C2313      C2314   1.395       .  A
C2313      H2320   1.085       .  S
C2314      S2316   1.806       .  S
S2315      H2318   1.407       .  S
S2316      H2317   1.401       .  S
C2321      C2322   1.408       .  A
C2321      C2326   1.407       .  A
C2322      C2323   1.416       .  A
C2322      H2331   1.083       .  S
C2323      C2324   1.421       .  A
C2323      S2327   1.799       .  S
C2324      C2325   1.412       .  A
C2325      C2326   1.399       .  A
C2325      H2332   1.082       .  S
C2326      S2328   1.811       .  S
S2327      H2330   1.407       .  S
S2328      H2329   1.407       .  S
C2333      C2334   1.414       .  A
C2333      C2338   1.416       .  A
C2334      C2335   1.400       .  A
C2334      H2343   1.083       .  S
C2335      C2336   1.409       .  A
C2335      S2339   1.798       .  S
C2336      C2337   1.409       .  A
C2337      C2338   1.400       .  A
C2337      H2344   1.084       .  S
C2338      S2340   1.801       .  S
S2339      H2342   1.407       .  S
S2340      H2341   1.405       .  S
C2345      C2346   1.414       .  A
C2345      C2350   1.424       .  A
C2346      C2347   1.414       .  A
C2346      H2355   1.083       .  S
C2347      C2348   1.415       .  A
C2347      S2351   1.802       .  S
C2348      C2349   1.410       .  A
C2349      C2350   1.421       .  A
C2349      H2356   1.083       .  S
C2350      S2352   1.799       .  S
S2351      H2354   1.405       .  S
S2352      H2353   1.406       .  S
C2357      C2358   1.403       .  A
C2357      C2362   1.412       .  A
C2358      C2359   1.394       .  A
C2358      H2367   1.084       .  S
C2359      C2360   1.408       .  A
C2359      S2363   1.806       .  S
C2360      C2361   1.398       .  A
C2361      C2362   1.396       .  A
C2361      H2368   1.084       .  S
C2362      S2364   1.798       .  S
S2363      H2366   1.404       .  S
S2364      H2365   1.403       .  S
C2369      C2370   1.414       .  A
C2369      C2374   1.410       .  A
C2370      C2371   1.390       .  A
C2370      H2379   1.084       .  S
C2371      C2372   1.405       .  A
C2371      S2375   1.806       .  S
C2372      C2373   1.408       .  A
C2373      C2374   1.410       .  A
C2373      H2380   1.083       .  S
C2374      S2376   1.796       .  S
S2375      H2378   1.403       .  S
S2376      H2377   1.408       .  S
C2381      C2382   1.413       .  A
C2381      C2386   1.418       .  A
C2382      C2383   1.399       .  A
C2382      H2391   1.082       .  S
C2383      C2384   1.409       .  A
C2383      S2387   1.798       .  S
C2384      C2385   1.408       .  A
C2385      C2386   1.401       .  A
C2385      H2392   1.084       .  S
C2386      S2388   1.798       .  S
S2387      H2390   1.407       .  S
S2388      H2389   1.404       .  S
C2393      C2394   1.411       .  A
C2393      C2398   1.418       .  A
C2394      C2395   1.392       .  A
C2394      H2403   1.082       .  S
C2395      C2396   1.405       .  A
C2395      S2399   1.805       .  S
C2396      C2397   1.405       .  A
C2397      C2398   1.410       .  A
C2397      H2404   1.084       .  S
C2398      S2400   1.799       .  S
S2399      H2402   1.406       .  S
S2400      H2401   1.407       .  S
C2405      C2406   1.411       .  A
C2405      C2410   1.418       .  A
C2406      C2407   1.404       .  A
C2406      H2415   1.084       .  S
C2407      C2408   1.410       .  A
C2407      S2411   1.800       .  S
C2408      C2409   1.404       .  A
C2409      C2410   1.405       .  A
C2409      H2416   1.084       .  S
C2410      S2412   1.800       .  S
S2411      H2414   1.404       .  S
S2412      H2413   1.407       .  S
C2417      C2418   1.413       .  A
C2417      C2422   1.422       .  A
C2418      C2419   1.415       .  A
C2418      H2427   1.083       .  S
C2419      C2420   1.416       .  A
C2419      S2423   1.801       .  S
C2420      C2421   1.403       .  A
C2421      C2422   1.404       .  A
C2421      H2428   1.083       .  S
C2422      S2424   1.809       .  S
S2423      H2426   1.406       .  S
S2424      H2425   1.407       .  S
C2429      C2430   1.414       .  A
C2429      C2434   1.417       .  A
C2430      C2431   1.398       .  A
C2430      H2439   1.083       .  S
C2431      C2432   1.407       .  A
C2431      S2435   1.796       .  S
C2432      C2433   1.409       .  A
C2433      C2434   1.402       .  A
C2433      H2440   1.084       .  S
C2434      S2436   1.802       .  S
S2435      H2438   1.406   1_556  S
S2436      H2437   1.408       .  S
C2441      C2442   1.409       .  A
C2441      C2446   1.426       .  A
C2442      C2443   1.407       .  A
C2442      H2451   1.083       .  S
C2443      C2444   1.411       .  A
C2443      S2447   1.802       .  S
C2444      C2445   1.395       .  A
C2445      C2446   1.399       .  A
C2445      H2452   1.084       .  S
C2446      S2448   1.811       .  S
S2447      H2450   1.406       .  S
S2448      H2449   1.407       .  S
C2453      C2454   1.415       .  A
C2453      C2458   1.417       .  A
C2454      C2455   1.403       .  A
C2454      H2463   1.083       .  S
C2455      C2456   1.408       .  A
C2455      S2459   1.800       .  S
C2456      C2457   1.406       .  A
C2457      C2458   1.404       .  A
C2457      H2464   1.084       .  S
C2458      S2460   1.794       .  S
S2459      H2462   1.407       .  S
S2460      H2461   1.407       .  S
C2465      C2466   1.410       .  A
C2465      C2470   1.426       .  A
C2466      C2467   1.408       .  A
C2466      H2475   1.083       .  S
C2467      C2468   1.411       .  A
C2467      S2471   1.801       .  S
C2468      C2469   1.398       .  A
C2469      C2470   1.400       .  A
C2469      H2476   1.083       .  S
C2470      S2472   1.814       .  S
S2471      H2474   1.403       .  S
S2472      H2473   1.406       .  S
C2477      C2478   1.400       .  A
C2477      C2482   1.416       .  A
C2478      C2479   1.411       .  A
C2478      H2487   1.083       .  S
C2479      C2480   1.429       .  A
C2479      S2483   1.812       .  S
C2480      C2481   1.403       .  A
C2481      C2482   1.405       .  A
C2481      H2488   1.083       .  S
C2482      S2484   1.801       .  S
S2483      H2486   1.407       .  S
S2484      H2485   1.407       .  S
C2489      C2490   1.412       .  A
C2489      C2494   1.420       .  A
C2490      C2491   1.387       .  A
C2490      H2499   1.083       .  S
C2491      C2492   1.406       .  A
C2491      S2495   1.808       .  S
C2492      C2493   1.407       .  A
C2493      C2494   1.416       .  A
C2493      H2500   1.083       .  S
C2494      S2496   1.798       .  S
S2495      H2498   1.407       .  S
S2496      H2497   1.404       .  S
C2501      C2502   1.409       .  A
C2501      C2506   1.413       .  A
C2502      C2503   1.404       .  A
C2502      H2511   1.084       .  S
C2503      C2504   1.420       .  A
C2503      S2507   1.803       .  S
C2504      C2505   1.412       .  A
C2505      C2506   1.408       .  A
C2505      H2512   1.082       .  S
C2506      S2508   1.806       .  S
S2507      H2510   1.408       .  S
S2508      H2509   1.406       .  S
C2513      C2514   1.409       .  A
C2513      C2518   1.423       .  A
C2514      C2515   1.411       .  A
C2514      H2523   1.083       .  S
C2515      C2516   1.415       .  A
C2515      S2519   1.800       .  S
C2516      C2517   1.399       .  A
C2517      C2518   1.391       .  A
C2517      H2524   1.085       .  S
C2518      S2520   1.804       .  S
S2519      H2522   1.407       .  S
S2520      H2521   1.405       .  S
C2525      C2526   1.402       .  A
C2525      C2530   1.409       .  A
C2526      C2527   1.401       .  A
C2526      H2535   1.084       .  S
C2527      C2528   1.418       .  A
C2527      S2531   1.797       .  S
C2528      C2529   1.406       .  A
C2529      C2530   1.400       .  A
C2529      H2536   1.084       .  S
C2530      S2532   1.800       .  S
S2531      H2534   1.404       .  S
S2532      H2533   1.406       .  S
C2537      C2538   1.410       .  A
C2537      C2542   1.420       .  A
C2538      C2539   1.394       .  A
C2538      H2547   1.083       .  S
C2539      C2540   1.406       .  A
C2539      S2543   1.804       .  S
C2540      C2541   1.405       .  A
C2541      C2542   1.414       .  A
C2541      H2548   1.083       .  S
C2542      S2544   1.806       .  S
S2543      H2546   1.406       .  S
S2544      H2545   1.407       .  S
C2549      C2550   1.396       .  A
C2549      C2554   1.415       .  A
C2550      C2551   1.399       .  A
C2550      H2559   1.084       .  S
C2551      C2552   1.426       .  A
C2551      S2555   1.805       .  S
C2552      C2553   1.407       .  A
C2553      C2554   1.405       .  A
C2553      H2560   1.084       .  S
C2554      S2556   1.804       .  S
S2555      H2558   1.408       .  S
S2556      H2557   1.407       .  S
C2561      C2562   1.409       .  A
C2561      C2566   1.417       .  A
C2562      C2563   1.394       .  A
C2562      H2571   1.083       .  S
C2563      C2564   1.408       .  A
C2563      S2567   1.805       .  S
C2564      C2565   1.407       .  A
C2565      C2566   1.413       .  A
C2565      H2572   1.083       .  S
C2566      S2568   1.800       .  S
S2567      H2570   1.404       .  S
S2568      H2569   1.407       .  S
C2573      C2574   1.408       .  A
C2573      C2578   1.411       .  A
C2574      C2575   1.410       .  A
C2574      H2583   1.084       .  S
C2575      C2576   1.418       .  A
C2575      S2579   1.800       .  S
C2576      C2577   1.413       .  A
C2577      C2578   1.406       .  A
C2577      H2584   1.084       .  S
C2578      S2580   1.802       .  S
S2579      H2582   1.407       .  S
S2580      H2581   1.406       .  S
C2585      C2586   1.409       .  A
C2585      C2590   1.415       .  A
C2586      C2587   1.421       .  A
C2586      H2595   1.083       .  S
C2587      C2588   1.424       .  A
C2587      S2591   1.794       .  S
C2588      C2589   1.404       .  A
C2589      C2590   1.383       .  A
C2589      H2596   1.079       .  S
C2590      S2592   1.801       .  S
S2591      H2594   1.407       .  S
S2592      H2593   1.407       .  S
C2597      C2598   1.407       .  A
C2597      C2602   1.429       .  A
C2598      C2599   1.406       .  A
C2598      H2607   1.083       .  S
C2599      C2600   1.417       .  A
C2599      S2603   1.802       .  S
C2600      C2601   1.399       .  A
C2601      C2602   1.410       .  A
C2601      H2608   1.082       .  S
C2602      S2604   1.812       .  S
S2603      H2606   1.407       .  S
S2604      H2605   1.406       .  S
C2609      C2610   1.407       .  A
C2609      C2614   1.420       .  A
C2610      C2611   1.391       .  A
C2610      H2619   1.083       .  S
C2611      C2612   1.408       .  A
C2611      S2615   1.808       .  S
C2612      C2613   1.403       .  A
C2613      C2614   1.406       .  A
C2613      H2620   1.084       .  S
C2614      S2616   1.804       .  S
S2615      H2618   1.405       .  S
S2616      H2617   1.404       .  S
C2621      C2622   1.417       .  A
C2621      C2626   1.418       .  A
C2622      C2623   1.402       .  A
C2622      H2631   1.083       .  S
C2623      C2624   1.406       .  A
C2623      S2627   1.800       .  S
C2624      C2625   1.409       .  A
C2625      C2626   1.409       .  A
C2625      H2632   1.084       .  S
C2626      S2628   1.798       .  S
S2627      H2630   1.407       .  S
S2628      H2629   1.405       .  S
C2633      C2634   1.411       .  A
C2633      C2638   1.423       .  A
C2634      C2635   1.411       .  A
C2634      H2643   1.084       .  S
C2635      C2636   1.413       .  A
C2635      S2639   1.802       .  S
C2636      C2637   1.392       .  A
C2637      C2638   1.396       .  A
C2637      H2644   1.084       .  S
C2638      S2640   1.799       .  S
S2639      H2642   1.406       .  S
S2640      H2641   1.406       .  S
C2645      C2646   1.417       .  A
C2645      C2650   1.417       .  A
C2646      C2647   1.404       .  A
C2646      H2655   1.078       .  S
C2647      C2648   1.406       .  A
C2647      S2651   1.807       .  S
C2648      C2649   1.408       .  A
C2649      C2650   1.404       .  A
C2649      H2656   1.084       .  S
C2650      S2652   1.801       .  S
S2651      H2654   1.406       .  S
S2652      H2653   1.401       .  S
C2657      C2658   1.410       .  A
C2657      C2662   1.417       .  A
C2658      C2659   1.398       .  A
C2658      H2667   1.084       .  S
C2659      C2660   1.408       .  A
C2659      S2663   1.805       .  S
C2660      C2661   1.404       .  A
C2661      C2662   1.406       .  A
C2661      H2668   1.084       .  S
C2662      S2664   1.799       .  S
S2663      H2666   1.403       .  S
S2664      H2665   1.408       .  S
C2669      C2670   1.413       .  A
C2669      C2674   1.418       .  A
C2670      C2671   1.400       .  A
C2670      H2679   1.083       .  S
C2671      C2672   1.407       .  A
C2671      S2675   1.801       .  S
C2672      C2673   1.405       .  A
C2673      C2674   1.405       .  A
C2673      H2680   1.084       .  S
C2674      S2676   1.800       .  S
S2675      H2678   1.407       .  S
S2676      H2677   1.407       .  S
C2681      C2682   1.410       .  A
C2681      C2686   1.416       .  A
C2682      C2683   1.393       .  A
C2682      H2691   1.083       .  S
C2683      C2684   1.407       .  A
C2683      S2687   1.806       .  S
C2684      C2685   1.406       .  A
C2685      C2686   1.410       .  A
C2685      H2692   1.084       .  S
C2686      S2688   1.796       .  S
S2687      H2690   1.406       .  S
S2688      H2689   1.407       .  S
C2693      C2694   1.415       .  A
C2693      C2698   1.418       .  A
C2694      C2695   1.395       .  A
C2694      H2703   1.082       .  S
C2695      C2696   1.406       .  A
C2695      S2699   1.803       .  S
C2696      C2697   1.408       .  A
C2697      C2698   1.408       .  A
C2697      H2704   1.084       .  S
C2698      S2700   1.800       .  S
S2699      H2702   1.407       .  S
S2700      H2701   1.407       .  S
C2705      C2706   1.408       .  A
C2705      C2710   1.418       .  A
C2706      C2707   1.392       .  A
C2706      H2715   1.077       .  S
C2707      C2708   1.409       .  A
C2707      S2711   1.806       .  S
C2708      C2709   1.408       .  A
C2709      C2710   1.413       .  A
C2709      H2716   1.083       .  S
C2710      S2712   1.796       .  S
S2711      H2714   1.407       .  S
S2712      H2713   1.407       .  S
C2717      C2718   1.408       .  A
C2717      C2722   1.428       .  A
C2718      C2719   1.402       .  A
C2718      H2727   1.084       .  S
C2719      C2720   1.413       .  A
C2719      S2723   1.804       .  S
C2720      C2721   1.394       .  A
C2721      C2722   1.397       .  A
C2721      H2728   1.084       .  S
C2722      S2724   1.803       .  S
S2723      H2726   1.407       .  S
S2724      H2725   1.408       .  S
C2729      C2730   1.410       .  A
C2729      C2734   1.429       .  A
C2730      C2731   1.413       .  A
C2730      H2739   1.083       .  S
C2731      C2732   1.413       .  A
C2731      S2735   1.800       .  S
C2732      C2733   1.392       .  A
C2733      C2734   1.395       .  A
C2733      H2740   1.084       .  S
C2734      S2736   1.808       .  S
S2735      H2738   1.404       .  S
S2736      H2737   1.407       .  S
C2741      C2742   1.415       .  A
C2741      C2746   1.418       .  A
C2742      C2743   1.399       .  A
C2742      H2751   1.082       .  S
C2743      C2744   1.408       .  A
C2743      S2747   1.801       .  S
C2744      C2745   1.406       .  A
C2745      C2746   1.402       .  A
C2745      H2752   1.084       .  S
C2746      S2748   1.800       .  S
S2747      H2750   1.406       .  S
S2748      H2749   1.407       .  S
C2753      C2754   1.405       .  A
C2753      C2758   1.421       .  A
C2754      C2755   1.413       .  A
C2754      H2763   1.084       .  S
C2755      C2756   1.420       .  A
C2755      S2759   1.795       .  S
C2756      C2757   1.404       .  A
C2757      C2758   1.392       .  A
C2757      H2764   1.082       .  S
C2758      S2760   1.817       .  S
S2759      H2762   1.407       .  S
S2760      H2761   1.407       .  S
C2765      C2766   1.406       .  A
C2765      C2770   1.407       .  A
C2766      C2767   1.407       .  A
C2766      H2775   1.083       .  S
C2767      C2768   1.413       .  A
C2767      S2771   1.804       .  S
C2768      C2769   1.409       .  A
C2769      C2770   1.396       .  A
C2769      H2776   1.084       .  S
C2770      S2772   1.805       .  S
S2771      H2774   1.407       .  S
S2772      H2773   1.401       .  S
C2777      C2778   1.409       .  A
C2777      C2782   1.421       .  A
C2778      C2779   1.390       .  A
C2778      H2787   1.083       .  S
C2779      C2780   1.408       .  A
C2779      S2783   1.806       .  S
C2780      C2781   1.406       .  A
C2781      C2782   1.413       .  A
C2781      H2788   1.083       .  S
C2782      S2784   1.798       .  S
S2783      H2786   1.407       .  S
S2784      H2785   1.407       .  S
C2789      C2790   1.404       .  A
C2789      C2794   1.422       .  A
C2790      C2791   1.401       .  A
C2790      H2799   1.083       .  S
C2791      C2792   1.411       .  A
C2791      S2795   1.808       .  S
C2792      C2793   1.398       .  A
C2793      C2794   1.404       .  A
C2793      H2800   1.083       .  S
C2794      S2796   1.809       .  S
S2795      H2798   1.407       .  S
S2796      H2797   1.407       .  S
