geometry optimzed in LAMMPS
_audit_creation_date              2020-11-30 
_audit_creation_method            'lammps2cif' 
_symmetry_space_group_name_H-M    'P1' 
_symmetry_Int_Tables_number       1 
_symmetry_cell_setting            triclinic 
loop_ 
_symmetry_equiv_pos_as_xyz 
  x,y,z 
_cell_length_a                    43.9761897 
_cell_length_b                    43.03677928251013 
_cell_length_c                    29.408909766445753 
_cell_angle_alpha                 92.48914146685556 
_cell_angle_beta                  86.27514597886953 
_cell_angle_gamma                 130.2671633305203 
loop_ 
_atom_site_label 
_atom_site_type_symbol 
_atom_site_fract_x 
_atom_site_fract_y 
_atom_site_fract_z 
_atom_site_charge 
C1          C  0.33386791  0.15143267  0.02558450     0.32400
C2          C  0.33954540  0.16059549  0.42766259     0.32400
C3          C  0.34766090  0.13045655  0.99807094    -0.03800
C4          C  0.29127754  0.12604663  0.00498971    -0.04600
C5          C  0.35655462  0.19097477  0.99610451    -0.04500
C6          C  0.35956014  0.14593929  0.44963025    -0.03800
C7          C  0.29901450  0.13503025  0.45673129    -0.04600
C8          C  0.36113349  0.20177355  0.45232189    -0.04500
C9          C  0.35956848  0.11511374  0.43552266    -0.29900
N10         N  0.36095299  0.09860092  0.47239279     0.16600
C11         C  0.35541602  0.10623575  0.01157113    -0.29900
H12         H  0.35815474  0.10104404  0.04620712     0.18200
C13         C  0.25915047  0.11246404  0.44762335    -0.28900
N14         N  0.22705258  0.08757776  0.98679013     0.15300
C15         C  0.25202539  0.10378154  0.02216181    -0.28900
C16         C  0.37775816  0.23965262  0.43710432    -0.29100
N17         N  0.38228915  0.24988919  0.96344552     0.15900
H18         H  0.38017240  0.24816793  0.40212101     0.18500
C19         C  0.37469221  0.23153549  0.00419277    -0.29200
H20         H  0.38020638  0.24606990  0.03714303     0.18500
H21         H  0.24244299  0.09998521  0.05780328     0.18500
H22         H  0.35535716  0.10310547  0.40127596     0.18600
H23         H  0.24743463  0.10693289  0.41426265     0.18500
C24         C  0.35943817  0.17400002  0.17641503     0.32400
C25         C  0.35638609  0.16479576  0.27575752     0.32400
C26         C  0.37979446  0.15818197  0.19528907    -0.03800
C27         C  0.37890861  0.21291452  0.20859142    -0.04600
C28         C  0.31890852  0.14500519  0.20240567    -0.04500
C29         C  0.37835738  0.15406457  0.24391952    -0.03800
C30         C  0.37708380  0.20754150  0.25700108    -0.04600
C31         C  0.31703921  0.14030349  0.25094664    -0.04500
C32         C  0.39797669  0.13982201  0.25170708    -0.29900
N33         N  0.41111260  0.13507146  0.21124097     0.16600
C34         C  0.40031039  0.14586442  0.17675483    -0.29900
H35         H  0.40666647  0.14458843  0.14086425     0.18600
C36         C  0.39413518  0.24419561  0.27793395    -0.28900
N37         N  0.40646758  0.27216988  0.24583315     0.15300
C38         C  0.39750027  0.25399016  0.20375536    -0.28900
C39         C  0.27810709  0.11934612  0.26536435    -0.29100
N40         N  0.25749148  0.11100082  0.22811651     0.15900
H41         H  0.26610801  0.11304949  0.30023216     0.18500
C42         C  0.28146778  0.12632415  0.19013316    -0.29200
H43         H  0.27254667  0.12633613  0.15665551     0.18500
H44         H  0.40353569  0.26932512  0.17203093     0.18500
H45         H  0.40219058  0.13297394  0.28452377     0.18600
H46         H  0.39677687  0.25000381  0.31424966     0.18500
O47         O  0.06646260  0.48654380  0.38630230    -0.72900
O48         O  0.03545034  0.44507778  0.44787003    -0.51800
C49         C  0.06068339  0.46021805  0.41343101     0.80800
O50         O  0.09058943  0.15702544  0.44000760    -0.57500
O51         O  0.03211789  0.13832419  0.41772327    -0.50600
C52         C  0.06972861  0.16375311  0.42148205     0.72800
O53         O  0.12353041  0.08537837  0.48308750    -0.72100
O54         O  0.08964107  0.02092229  0.50914821    -0.52700
C55         C  0.12249662  0.05632522  0.49609048     0.78800
O56         O  0.02266783  0.55928627  0.34693680    -0.57200
O57         O  0.50521186  0.09151257  0.33952210    -0.50400
C58         C  0.53152723  0.08804996  0.33311431     0.75400
Zr59       Zr  0.03158691  0.51382001  0.37993120     2.54700
O60         O  0.12453386  0.07338861  0.38645118    -0.77800
O61         O  0.51950697  0.47005114  0.32925027    -0.91200
Zr62       Zr  0.07826053  0.10122647  0.48121455     2.64700
O63         O  0.14963547  0.15723369  0.46717696    -0.96200
O64         O  0.09848990  0.14555801  0.54683135    -0.78200
O65         O  0.06919545  0.04458557  0.44993926    -0.81600
O66         O  0.05545887  0.08206059  0.40951843    -2.16300
O67         O  0.39232791  0.46497736  0.37841573    -0.65000
O68         O  0.42100467  0.53167216  0.38523844    -0.49500
C69         C  0.39094059  0.49383258  0.37724031     0.73800
O70         O  0.39100825  0.90680884  0.00716084    -0.57900
O71         O  0.95060783  0.39576411  0.00304040    -0.49900
C72         C  0.47093669  0.41714999  0.03799170     0.75600
O73         O  0.39066591  0.01111894  0.49259417    -0.69300
O74         O  0.41707285  0.04712121  0.42657412    -0.48000
C75         C  0.39374416  0.03339327  0.46210608     0.77000
O76         O  0.42240584  0.39216198  0.43332535    -0.64600
O77         O  0.46656446  0.40729011  0.48537986    -0.51800
C78         C  0.43720873  0.38216124  0.45981046     0.75400
Zr79       Zr  0.43513119  0.45527472  0.41231792     2.77500
O80         O  0.36354579  0.40374235  0.43132578    -0.95400
O81         O  0.42740757  0.43034401  0.33571860    -0.76200
Zr82       Zr  0.42475588  0.98581936  0.50778338     2.70100
O83         O  0.38057448  0.39991032  0.98286398    -0.77400
O84         O  0.95138489  0.03488219  0.06277281    -0.96500
Zr85       Zr  0.99150763  0.45729904  0.48337418     2.21500
Zr86       Zr  0.46258620  0.03827546  0.39631242     2.11100
O87         O  0.43668241  0.50642047  0.45005199    -2.45200
O88         O  0.48408760  0.50586345  0.46358981    -0.77200
O89         O  0.48720220  0.51374768  0.37010794    -0.69400
O90         O  0.02858098  0.04506487  0.52764823    -2.30400
O91         O  0.49481439  0.46582735  0.42046576    -2.26600
O92         O  0.01658052  0.08837308  0.47593003    -0.71200
H93         H  0.08119318  0.10621463  0.39848604     0.80800
H94         H  0.99837699  0.99149323  0.01854853     0.81900
H95         H  0.41035194  0.49793335  0.45339480     0.84100
H96         H  0.49347168  0.44358291  0.40941708     0.81700
H97         H  0.10201398  0.16911402  0.53558685     0.44800
H98         H  0.96677855  0.06063451  0.04544490     0.43700
H99         H  0.37433984  0.38296522  0.00942056     0.43400
H100        H  0.35382824  0.41811118  0.44266663     0.41400
H101        H  0.40580446  0.40057850  0.33944163     0.44500
H102        H  0.49061164  0.45228389  0.33568070     0.39300
H103        H  0.13302609  0.09975552  0.39805329     0.45400
H104        H  0.15338428  0.16205951  0.43389746     0.41800
H105        H  0.35062570  0.39105531  0.40210926     0.46700
H106        H  0.01652646  0.44529481  0.33289629     0.45400
H107        H  0.15518382  0.18181190  0.48072922     0.45600
H108        H  0.42345065  0.02685526  0.07229970     0.45900
O109        O  0.02258787  0.42269294  0.13453231    -0.72900
O110        O  0.05036461  0.44180428  0.20372379    -0.51800
C111        C  0.04205342  0.42291098  0.16544137     0.80800
O112        O  0.09121460  0.13703859  0.12842634    -0.57500
O113        O  0.02754246  0.11282538  0.12315954    -0.50600
C114        C  0.06568907  0.14156205  0.12099053     0.72800
O115        O  0.14575189  0.09107775  0.19113735    -0.72100
O116        O  0.11897493  0.03110157  0.22591725    -0.52700
C117        C  0.14792256  0.06706569  0.21198699     0.78800
O118        O  0.98217215  0.49303548  0.08882945    -0.57200
O119        O  0.42929377  0.96287154  0.09466138    -0.50400
C120        C  0.41946522  0.92897323  0.10620123     0.75400
Zr121      Zr  0.00244354  0.46353766  0.13055545     2.54700
O122        O  0.08424198  0.00575978  0.12102977    -0.77800
O123        O  0.45064858  0.39480160  0.12388208    -0.91200
Zr124      Zr  0.09369202  0.08616959  0.15845734     2.64700
O125        O  0.12823311  0.09678882  0.08494168    -0.96200
O126        O  0.14944074  0.14939509  0.19386199    -0.78200
O127        O  0.07275575  0.01842520  0.16213501    -0.81600
O128        O  0.02699233  0.02806864  0.16808971    -2.16300
O129        O  0.38477139  0.44695296  0.18994272    -0.65000
O130        O  0.41169965  0.50173601  0.14433554    -0.49500
C131        C  0.38209759  0.46755518  0.16252926     0.73800
O132        O  0.54747033  0.03403478  0.28273636    -0.57900
O133        O  0.08401017  0.51862716  0.30277573    -0.49900
C134        C  0.58812515  0.55205785  0.30939896     0.75600
O135        O  0.48173265  0.08514347  0.23305716    -0.69300
O136        O  0.45927710  0.06731589  0.16116873    -0.48000
C137        C  0.46413204  0.08500469  0.19943834     0.77000
O138        O  0.43129737  0.39600385  0.26096992    -0.64600
O139        O  0.49447674  0.41814038  0.26712119    -0.51800
C140        C  0.45582741  0.38994305  0.26833635     0.75400
Zr141      Zr  0.43488015  0.45070024  0.22879877     2.77500
O142        O  0.38864683  0.44143716  0.28874603    -0.95400
O143        O  0.38085282  0.38180091  0.20313131    -0.76200
Zr144      Zr  0.51295211  0.05526563  0.24886921     2.70100
O145        O  0.46828178  0.54570204  0.32227539    -0.77400
O146        O  0.07057730  0.14187796  0.25010157    -0.96500
Zr147      Zr  0.03863548  0.48524157  0.24056210     2.21500
Zr148      Zr  0.47760880  0.02790552  0.13198044     2.11100
O149        O  0.46112841  0.51930998  0.22814603    -2.45200
O150        O  0.49319651  0.49599848  0.27369631    -0.77200
O151        O  0.45536257  0.47289812  0.15175350    -0.69400
O152        O  0.07177021  0.06399391  0.22986452    -2.30400
O153        O  0.48445099  0.44685893  0.20340292    -2.26600
O154        O  0.04363382  0.09024044  0.18622043    -0.71200
H155        H  0.04552116  0.04508440  0.14389658     0.80800
H156        H  0.09726929  0.08922499  0.23777206     0.81900
H157        H  0.43985680  0.51906776  0.23919233     0.84100
H158        H  0.47549538  0.42024047  0.19719792     0.81700
H159        H  0.16318179  0.16956056  0.16882534     0.44800
H160        H  0.09434182  0.14919564  0.23244144     0.43700
H161        H  0.44749273  0.51648598  0.31527352     0.43400
H162        H  0.38285230  0.45906367  0.28011065     0.41400
H163        H  0.35908929  0.37003835  0.22692033     0.44500
H164        H  0.42663775  0.38971107  0.13751637     0.39300
H165        H  0.08958083  0.99133652  0.09910630     0.45400
H166        H  0.14866001  0.12675789  0.08192912     0.41800
H167        H  0.36329162  0.41341299  0.28459861     0.46700
H168        H  0.95111265  0.37196124  0.13807775     0.45400
H169        H  0.14372244  0.08794644  0.08969713     0.45600
H170        H  0.55373948  0.14057969  0.23104832     0.45900
C171        C  0.17020130  0.37725732  0.33583306     0.32400
C172        C  0.16892344  0.37455828  0.43549340     0.32400
C173        C  0.15133978  0.39319211  0.36484960    -0.03800
C174        C  0.14786261  0.33551027  0.35944286    -0.04600
C175        C  0.21071103  0.40197670  0.35958225    -0.04500
C176        C  0.15070573  0.39180401  0.41361011    -0.03800
C177        C  0.14698629  0.33497046  0.40835198    -0.04600
C178        C  0.21047344  0.40068931  0.40834459    -0.04500
C179        C  0.13189609  0.40659710  0.43040997    -0.29900
N180        N  0.12147520  0.41703381  0.39508838     0.16600
C181        C  0.13306209  0.40899746  0.35528293    -0.29900
H182        H  0.12831805  0.41399179  0.32164239     0.18600
C183        C  0.12852601  0.29662065  0.42148368    -0.28900
N184        N  0.11918260  0.27397893  0.38381537     0.15300
C185        C  0.13042559  0.29635684  0.34573123    -0.28900
C186        C  0.25026098  0.42452755  0.41888341    -0.29100
N187        N  0.27376803  0.43983791  0.37960650     0.15900
H188        H  0.26122965  0.42980798  0.45265289     0.18500
C189        C  0.25008720  0.42625388  0.34371840    -0.29200
H190        H  0.26072420  0.43294864  0.30835235     0.18500
H191        H  0.12751432  0.28504436  0.31142741     0.18500
H192        H  0.12602055  0.40938903  0.46600942     0.18600
H193        H  0.12362415  0.28583397  0.45591285     0.18500
C194        C  0.17007647  0.36575460  0.08372987     0.32400
C195        C  0.16438727  0.36002890  0.18503475     0.32400
C196        C  0.14852822  0.37932437  0.11416591    -0.03800
C197        C  0.14689925  0.32342056  0.10717928    -0.04600
C198        C  0.21011569  0.38913166  0.11212803    -0.04500
C199        C  0.14683403  0.37689964  0.16294842    -0.03800
C200        C  0.14405988  0.32028792  0.15579006    -0.04600
C201        C  0.20624802  0.38636340  0.16102717    -0.04500
C202        C  0.12135733  0.38313853  0.17965966    -0.29900
N203        N  0.10767975  0.38912539  0.14409622     0.16600
C204        C  0.12361137  0.38684947  0.10431852    -0.29900
H205        H  0.11623238  0.38873172  0.07070424     0.18600
C206        C  0.12368290  0.27960441  0.16475456    -0.28900
N207        N  0.11446451  0.25909431  0.12452497     0.15300
C208        C  0.12837893  0.28520644  0.08964006    -0.28900
C209        C  0.24300265  0.40391582  0.17630920    -0.29100
N210        N  0.26898525  0.41732516  0.13993303     0.15900
H211        H  0.25002619  0.40516538  0.21131851     0.18500
C212        C  0.24974000  0.40839458  0.10085703    -0.29200
H213        H  0.26322252  0.41412495  0.06678820     0.18500
H214        H  0.12601637  0.27705232  0.05393011     0.18500
H215        H  0.11177135  0.38133539  0.21501914     0.18600
H216        H  0.11682249  0.26600639  0.19797608     0.18500
C217        C  0.17371715  0.38222330  0.27910748    -0.14100
C218        C  0.15974693  0.35424223  0.24156537    -0.29200
H219        H  0.19069965  0.41360815  0.26877017     0.14900
H220        H  0.14265368  0.32290524  0.25139617     0.15500
C221        C  0.16483264  0.37081649  0.49272835    -0.14100
C222        C  0.16623093  0.35832336  0.02345672    -0.29200
H223        H  0.16060912  0.39109302  0.50774255     0.14900
H224        H  0.17626376  0.37525875  0.05114567     0.15500
C225        C  0.08112186  0.18251685  0.11552044    -0.10900
C226        C  0.09595304  0.21779968  0.11900251    -0.12500
C227        C  0.34279458  0.45042878  0.15070776    -0.10900
C228        C  0.30902949  0.43536425  0.14352970    -0.12500
C229        C  0.08040210  0.39574046  0.14860806    -0.10900
C230        C  0.05934819  0.40435996  0.15518850    -0.12500
C231        C  0.10356201  0.23423210  0.38718709    -0.10900
C232        C  0.08966597  0.20175088  0.40104423    -0.12500
C233        C  0.31574466  0.46324124  0.37573070    -0.10900
C234        C  0.35138593  0.48089047  0.37294704    -0.12500
C235        C  0.08355820  0.44625267  0.40485496    -0.10900
C236        C  0.10134103  0.43304103  0.39954438    -0.12500
C237        C  0.57336904  0.12319642  0.33407825    -0.16100
C238        C  0.60784510  0.13874393  0.32951307     0.07900
C239        C  0.64124341  0.62919284  0.32008448     0.09800
C240        C  0.62403907  0.59373167  0.31424836    -0.17000
C241        C  0.51062758  0.44149902  0.05434710    -0.16100
C242        C  0.54216625  0.47505942  0.05968253     0.07900
C243        C  0.34966164  0.85779270  0.10111863     0.09800
C244        C  0.37795276  0.89256159  0.10980416    -0.17000
C245        C  0.44773132  0.10528890  0.20458623    -0.10900
C246        C  0.43143281  0.11975020  0.20680654    -0.12500
C247        C  0.43915486  0.34781519  0.26674101    -0.10900
C248        C  0.42433828  0.31300606  0.25653275    -0.12500
C249        C  0.18579393  0.08181296  0.22189515    -0.10900
C250        C  0.21838278  0.09453508  0.22796971    -0.12500
C251        C  0.36323989  0.06794933  0.47128638    -0.10900
C252        C  0.37167963  0.04660860  0.46909701    -0.12500
C253        C  0.40487660  0.30517866  0.46953861    -0.10900
C254        C  0.41866846  0.33987004  0.46369470    -0.12500
C255        C  0.16090064  0.06581054  0.49600227    -0.10900
C256        C  0.19563407  0.08020179  0.49246481    -0.12500
C257        C  0.33822315  0.16369454  0.37123325    -0.14100
C258        C  0.35584925  0.15870352  0.33189820    -0.29200
H259        H  0.32161066  0.17319359  0.36302050     0.14900
H260        H  0.37282466  0.14970841  0.34015030     0.15500
C261        C  0.33627569  0.15001511  0.08294950    -0.14100
C262        C  0.35868140  0.17907792  0.11952267    -0.29200
H263        H  0.31660268  0.11877269  0.09485549     0.14900
H264        H  0.37820315  0.21061344  0.10876116     0.15500
C265        C  0.34191095  0.16292984  0.52707056     0.32400
C266        C  0.32769030  0.14313872  0.92551854     0.32400
C267        C  0.36047057  0.14692215  0.49917654    -0.03800
C268        C  0.30038759  0.13620845  0.50535361    -0.04600
C269        C  0.36245808  0.20361888  0.50086800    -0.04500
C270        C  0.34482815  0.12633671  0.94924036    -0.03800
C271        C  0.28880587  0.12247832  0.95616312    -0.04600
C272        C  0.35307004  0.18600367  0.94737304    -0.04500
C273        C  0.35054023  0.09928793  0.93649316    -0.29900
N274        N  0.35709899  0.08788219  0.97430806     0.16600
C275        C  0.36095291  0.11672525  0.51071182    -0.29900
H276        H  0.35751825  0.10565594  0.54450017     0.18200
C277        C  0.24910038  0.09882167  0.94697487    -0.28900
N278        N  0.23687118  0.10003578  0.48766752     0.15300
C279        C  0.26156865  0.11440041  0.52272319    -0.28900
C280        C  0.36936191  0.22274404  0.92930805    -0.29100
N281        N  0.38899640  0.26462930  0.47336712     0.15900
H282        H  0.36990274  0.22896824  0.89384705     0.18500
C283        C  0.38000372  0.24353126  0.51234680    -0.29200
H284        H  0.38465345  0.25590913  0.54646188     0.18500
H285        H  0.25218318  0.11079998  0.55841587     0.18500
H286        H  0.34859068  0.08738462  0.90268442     0.18600
H287        H  0.23705100  0.09045995  0.91345751     0.18500
C288        C  0.34923043  0.14897970  0.67448985     0.32400
C289        C  0.33655442  0.13495257  0.77304996     0.32400
C290        C  0.36351626  0.12778494  0.69602850    -0.03800
C291        C  0.36974490  0.18656712  0.70736317    -0.04600
C292        C  0.30610762  0.12218532  0.69515417    -0.04500
C293        C  0.35744179  0.12095689  0.74415947    -0.03800
C294        C  0.36312336  0.17890776  0.75552557    -0.04600
C295        C  0.29893595  0.11528437  0.74349583    -0.04500
C296        C  0.37781246  0.10745836  0.75444938    -0.29900
N297        N  0.39533061  0.10552778  0.71563366     0.16600
C298        C  0.38696747  0.11795142  0.68023067    -0.29900
H299        H  0.39831526  0.12094911  0.64550166     0.18600
C300        C  0.38725596  0.21543712  0.77743947    -0.28900
N301        N  0.40841245  0.24503378  0.74582705     0.15300
C302        C  0.39834399  0.22846515  0.70322655    -0.28900
C303        C  0.25822696  0.09494210  0.75087539    -0.29100
N304        N  0.24187228  0.08940811  0.71003450     0.15900
H305        H  0.24210686  0.08611429  0.78365381     0.18500
C306        C  0.27071000  0.10571382  0.67649793    -0.29200
H307        H  0.26643514  0.10688503  0.64098417     0.18500
H308        H  0.41119295  0.24557553  0.67174864     0.18500
H309        H  0.38073092  0.10072361  0.78811883     0.18600
H310        H  0.38965645  0.22028912  0.81390436     0.18500
O311        O  0.07777036  0.48655614  0.85827037    -0.72900
O312        O  0.04674491  0.43642545  0.91080807    -0.51800
C313        C  0.07386235  0.45852006  0.87989106     0.80800
O314        O  0.06513143  0.12930464  0.94696381    -0.57500
O315        O  0.01216699  0.11119723  0.90919701    -0.50600
C316        C  0.04684509  0.13786542  0.92518977     0.72800
O317        O  0.10732072  0.06191988  0.98129746    -0.72100
O318        O  0.07971312  0.99516894  0.97599955    -0.52700
C319        C  0.11003647  0.03375634  0.98131647     0.78800
O320        O  0.01760432  0.54646321  0.82905122    -0.57200
O321        O  0.51682092  0.08784660  0.84633954    -0.50400
C322        C  0.54188250  0.08423089  0.83037275     0.75400
Zr323      Zr  0.03511849  0.50629496  0.85744678     2.54700
O324        O  0.10813442  0.06888461  0.86126079    -0.77800
O325        O  0.62848040  0.56015029  0.85069000    -0.91200
Zr326      Zr  0.05671659  0.06939599  0.97092311     2.64700
O327        O  0.11864607  0.12588887  0.93035470    -0.96200
O328        O  0.08901569  0.11576708  0.03551071    -0.78200
O329        O  0.05712075  0.02005416  0.93049955    -0.81600
O330        O  0.03546807  0.05690688  0.89945850    -2.16300
O331        O  0.39592534  0.44755013  0.84256933    -0.65000
O332        O  0.41140695  0.50456270  0.87598079    -0.49500
C333        C  0.38739504  0.47039307  0.85462957     0.73800
O334        O  0.39387911  0.91553635  0.50324637    -0.57900
O335        O  0.92931574  0.40295933  0.52326764    -0.49900
C336        C  0.41135654  0.42538997  0.51211305     0.75600
O337        O  0.39654028  0.00678469  0.99425317    -0.69300
O338        O  0.42712229  0.04796989  0.93230575    -0.48000
C339        C  0.40219246  0.03237848  0.96641859     0.77000
O340        O  0.41580767  0.37736270  0.92294773    -0.64600
O341        O  0.47206016  0.38657840  0.92137252    -0.51800
C342        C  0.43424369  0.36381066  0.92598833     0.75400
Zr343      Zr  0.43647320  0.43535002  0.87853754     2.77500
O344        O  0.36682130  0.37530588  0.89606889    -0.95400
O345        O  0.43826105  0.39642074  0.82092242    -0.76200
Zr346      Zr  0.42959834  0.97933286  0.00795227     2.70100
O347        O  0.41349771  0.49024062  0.58661752    -0.77400
O348        O  0.97737537  0.09179483  0.53785814    -0.96500
Zr349      Zr  0.00393135  0.44476057  0.95233114     2.21500
Zr350      Zr  0.46695488  0.03290079  0.89826242     2.11100
O351        O  0.42343975  0.46931373  0.93030979    -2.45200
O352        O  0.47652429  0.47305887  0.93805857    -0.77200
O353        O  0.48900655  0.50389082  0.85444687    -0.69400
O354        O  0.00118097  0.00088478  0.99058423    -2.30400
O355        O  0.50330248  0.45700024  0.87276038    -2.26600
O356        O  0.99122653  0.04511794  0.97489895    -0.71200
H357        H  0.05787791  0.08374373  0.88914732     0.80800
H358        H  0.03833735  0.05373882  0.55778526     0.81900
H359        H  0.39625995  0.45879501  0.93278805     0.84100
H360        H  0.50438434  0.43944078  0.85254300     0.81700
H361        H  0.09300238  0.14029129  0.02736014     0.44800
H362        H  0.96278471  0.08730657  0.56731117     0.43700
H363        H  0.39353734  0.49362290  0.58309680     0.43400
H364        H  0.35041303  0.38229704  0.88785195     0.41400
H365        H  0.42254422  0.36928009  0.83523770     0.44500
H366        H  0.63321315  0.54913821  0.82348419     0.39300
H367        H  0.12105491  0.06068454  0.87731229     0.45400
H368        H  0.13274987  0.14870667  0.95245032     0.41800
H369        H  0.35990231  0.35364261  0.87428071     0.46700
H370        H  0.02711581  0.44109282  0.81032747     0.45400
H371        H  0.13568425  0.11838194  0.92671768     0.45600
H372        H  0.40477750  0.01297092  0.58323184     0.45900
O373        O  0.04849577  0.44101103  0.61352511    -0.72900
O374        O  0.05955493  0.44283069  0.68806121    -0.51800
C375        C  0.06179288  0.43494160  0.64653946     0.80800
O376        O  0.05965715  0.10251134  0.62065802    -0.57500
O377        O  0.99530429  0.07393839  0.61386442    -0.50600
C378        C  0.03308992  0.10581438  0.61504657     0.72800
O379        O  0.11967391  0.05449476  0.65580447    -0.72100
O380        O  0.10136466  0.00628720  0.70727981    -0.52700
C381        C  0.12767025  0.03815523  0.68343681     0.78800
O382        O  0.93162449  0.41423279  0.61651148    -0.57200
O383        O  0.41259696  0.94047353  0.59372046    -0.50400
C384        C  0.39540536  0.90451378  0.60833913     0.75400
Zr385      Zr  0.00269495  0.45441986  0.60539858     2.54700
O386        O  0.02519713  0.94786266  0.54468517    -0.77800
O387        O  0.43248339  0.35581102  0.57139047    -0.91200
Zr388      Zr  0.06210252  0.04727876  0.62920226     2.64700
O389        O  0.11097277  0.08590207  0.56870636    -0.96200
O390        O  0.12102121  0.10861249  0.66464585    -0.78200
O391        O  0.04457185  0.98193846  0.63813787    -0.81600
O392        O  0.99801431  0.99320454  0.59497633    -2.16300
O393        O  0.35852935  0.38828697  0.69698227    -0.65000
O394        O  0.37794893  0.44370777  0.65858889    -0.49500
C395        C  0.35139470  0.40862283  0.67630261     0.73800
O396        O  0.53809199  0.00866228  0.77726943    -0.57900
O397        O  0.08949242  0.52009416  0.77824395    -0.49900
C398        C  0.56953949  0.52497847  0.78191553     0.75600
O399        O  0.47693838  0.06443009  0.73192257    -0.69300
O400        O  0.45239923  0.04598385  0.66146479    -0.48000
C401        C  0.45747806  0.06357981  0.70005229     0.77000
O402        O  0.42792170  0.35609882  0.75231075    -0.64600
O403        O  0.49411927  0.39256044  0.76404056    -0.51800
C404        C  0.45767757  0.35914376  0.76311517     0.75400
Zr405      Zr  0.41786167  0.40146093  0.72446953     2.77500
O406        O  0.37683371  0.38281644  0.79401484    -0.95400
O407        O  0.36834269  0.33646592  0.68692986    -0.76200
Zr408      Zr  0.50880031  0.03381759  0.74084067     2.70100
O409        O  0.46258578  0.52937602  0.81290275    -0.77400
O410        O  0.05047930  0.11089832  0.73189238    -0.96500
Zr411      Zr  0.04193377  0.48105861  0.71863671     2.21500
Zr412      Zr  0.46698742  0.00265957  0.63025200     2.11100
O413        O  0.43126010  0.46478850  0.71910456    -2.45200
O414        O  0.47694705  0.45463248  0.76296685    -0.77200
O415        O  0.46684328  0.44997315  0.67075985    -0.69400
O416        O  0.04321447  0.02828785  0.70211645    -2.30400
O417        O  0.46637296  0.39918587  0.68576391    -2.26600
O418        O  0.01480292  0.05052534  0.66692567    -0.71200
H419        H  0.99313043  0.98991821  0.56373706     0.80800
H420        H  0.06953187  0.05237882  0.70792295     0.81900
H421        H  0.41000232  0.46345113  0.73326586     0.84100
H422        H  0.46004586  0.37318186  0.68282652     0.81700
H423        H  0.12447220  0.13217560  0.65367488     0.44800
H424        H  0.07236321  0.11589718  0.71225716     0.43700
H425        H  0.46828510  0.55564955  0.81140167     0.43400
H426        H  0.35852388  0.38775160  0.78715222     0.41400
H427        H  0.38094979  0.32405725  0.68172015     0.44500
H428        H  0.42437532  0.33435943  0.59314416     0.39300
H429        H  0.04492974  0.94583964  0.55468041     0.45400
H430        H  0.12261236  0.11431871  0.57464759     0.41800
H431        H  0.35946439  0.35274783  0.79433656     0.46700
H432        H  0.94339132  0.36978941  0.56956047     0.45400
H433        H  0.13259809  0.08615899  0.57703912     0.45600
H434        H  0.55586622  0.11856805  0.72131413     0.45900
C435        C  0.16243300  0.35508529  0.82894088     0.32400
C436        C  0.17176744  0.36915272  0.92693832     0.32400
C437        C  0.15085295  0.37913694  0.85306460    -0.03800
C438        C  0.13880172  0.31691597  0.86126067    -0.04600
C439        C  0.20495813  0.37945272  0.84734485    -0.04500
C440        C  0.15518515  0.38612746  0.90093736    -0.03800
C441        C  0.14369008  0.32430116  0.90960161    -0.04600
C442        C  0.20969893  0.38647348  0.89525271    -0.04500
C443        C  0.14409256  0.40941234  0.91210829    -0.29900
N444        N  0.13363911  0.41652170  0.87366346     0.16600
C445        C  0.13761515  0.39829026  0.83785065    -0.29900
H446        H  0.13107842  0.39870385  0.80312278     0.18600
C447        C  0.12367232  0.28714693  0.93021360    -0.28900
N448        N  0.10692924  0.25769609  0.89774910     0.15300
C449        C  0.11592691  0.27512510  0.85593530    -0.28900
C450        C  0.25006816  0.40895238  0.90151683    -0.29100
N451        N  0.26954694  0.41571426  0.86031010     0.15900
H452        H  0.26422272  0.41953144  0.93384777     0.18500
C453        C  0.24250494  0.39796321  0.82734571    -0.29200
H454        H  0.24959658  0.39836055  0.79132516     0.18500
H455        H  0.10755879  0.25875053  0.82391751     0.18500
H456        H  0.14352360  0.42023607  0.94581078     0.18600
H457        H  0.12246133  0.28198378  0.96621814     0.18500
C458        C  0.15623376  0.34000032  0.58236997     0.32400
C459        C  0.14388412  0.33008226  0.68143318     0.32400
C460        C  0.14133912  0.35995252  0.60955417    -0.03800
C461        C  0.12489659  0.29510255  0.60230725    -0.04600
C462        C  0.19228096  0.35523812  0.61191710    -0.04500
C463        C  0.13554819  0.35532683  0.65821120    -0.03800
C464        C  0.11897116  0.29047543  0.65099324    -0.04600
C465        C  0.18525990  0.35030116  0.66032643    -0.04500
C466        C  0.11938850  0.37280086  0.67301171    -0.29900
N467        N  0.11499522  0.38705433  0.63605528     0.16600
C468        C  0.12752937  0.37920191  0.59772771    -0.29900
H469        H  0.12423916  0.38515517  0.56398290     0.18600
C470        C  0.09501462  0.24890763  0.65968752    -0.28900
N471        N  0.08586565  0.22786558  0.61969299     0.15300
C472        C  0.10411489  0.25560201  0.58486355    -0.28900
C473        C  0.21779074  0.35986225  0.67892378    -0.29100
N474        N  0.24468448  0.37013267  0.64504884     0.15900
H475        H  0.22102594  0.35748342  0.71450645     0.18500
C476        C  0.23017958  0.36753334  0.60411134    -0.29200
H477        H  0.24527215  0.37247693  0.57126283     0.18500
H478        H  0.10398839  0.24793632  0.54929580     0.18500
H479        H  0.10992577  0.37356566  0.70766277     0.18600
H480        H  0.08648884  0.23516074  0.69309069     0.18500
C481        C  0.16166219  0.35497022  0.77240059    -0.14100
C482        C  0.13938166  0.32500488  0.73782819    -0.29200
H483        H  0.18329776  0.38558220  0.75875626     0.14900
H484        H  0.11707088  0.29398738  0.74993961     0.15500
C485        C  0.17941954  0.38125903  0.98208501    -0.14100
C486        C  0.16441173  0.34610256  0.52530735    -0.29200
H487        H  0.19878944  0.41401021  0.98716105     0.14900
H488        H  0.17091191  0.32743038  0.51020929     0.15500
C489        C  0.04750163  0.14807891  0.61414515    -0.10900
C490        C  0.06443182  0.18481765  0.61584951    -0.12500
C491        C  0.31154422  0.39007082  0.66647392    -0.10900
C492        C  0.28086245  0.38006324  0.65388241    -0.12500
C493        C  0.09677742  0.40404750  0.63626253    -0.10900
C494        C  0.08078583  0.41835380  0.63730400    -0.12500
C495        C  0.08550780  0.21599814  0.90681917    -0.10900
C496        C  0.06753806  0.18047412  0.91608542    -0.12500
C497        C  0.31100905  0.43683965  0.85311449    -0.10900
C498        C  0.34656731  0.45401198  0.84949690    -0.12500
C499        C  0.10096306  0.45034226  0.87087982    -0.10900
C500        C  0.11778920  0.43640700  0.87134696    -0.12500
C501        C  0.58399679  0.11834281  0.82694603    -0.16100
C502        C  0.61476455  0.12526068  0.81708204     0.07900
C503        C  0.61509896  0.60481945  0.77647016     0.09800
C504        C  0.59955804  0.56917762  0.77705252    -0.17000
C505        C  0.37418093  0.38452072  0.50811465    -0.16100
C506        C  0.34295283  0.35258231  0.52044627     0.07900
C507        C  0.33091304  0.84084831  0.58252719     0.09800
C508        C  0.35314289  0.87164587  0.60407412    -0.17000
C509        C  0.43817965  0.08159469  0.70815670    -0.10900
C510        C  0.41893233  0.09330407  0.71236917    -0.12500
C511        C  0.44910605  0.32127133  0.76637919    -0.10900
C512        C  0.43286239  0.28635725  0.75713645    -0.12500
C513        C  0.16897979  0.05767953  0.69132097    -0.10900
C514        C  0.20228471  0.07214004  0.70170292    -0.12500
C515        C  0.36698767  0.06302885  0.97468909    -0.10900
C516        C  0.37973535  0.04543524  0.97355390    -0.12500
C517        C  0.39860856  0.28993876  0.95530733    -0.10900
C518        C  0.41310558  0.32331330  0.94221805    -0.12500
C519        C  0.14971990  0.04744488  0.98758290    -0.10900
C520        C  0.18516153  0.06484559  0.98936061    -0.12500
C521        C  0.32409990  0.14283343  0.86872185    -0.14100
C522        C  0.33484497  0.12969925  0.82979221    -0.29200
H523        H  0.31228148  0.15725902  0.85960681     0.14900
H524        H  0.34669224  0.11541311  0.83886182     0.15500
C525        C  0.34058355  0.16389232  0.58421854    -0.14100
C526        C  0.35535704  0.15377460  0.61773234    -0.29200
H527        H  0.32390608  0.17283829  0.59863136     0.14900
H528        H  0.37280199  0.14585730  0.60350093     0.15500
C529        C  0.32672218  0.63868684  0.04038235     0.32400
C530        C  0.31243740  0.64097630  0.44309436     0.32400
C531        C  0.34170141  0.61623750  0.01504737    -0.03800
C532        C  0.28410410  0.61147356  0.01759257    -0.04600
C533        C  0.34899394  0.67721488  0.00604676    -0.04500
C534        C  0.33025856  0.62445471  0.46474980    -0.03800
C535        C  0.27282391  0.61853062  0.47381859    -0.04600
C536        C  0.33720293  0.68314343  0.46525367    -0.04500
C537        C  0.34652840  0.60795647  0.44719844    -0.29900
N538        N  0.35844638  0.59984109  0.48252205     0.16600
C539        C  0.35418211  0.59675455  0.03145991    -0.29900
H540        H  0.35828596  0.59486971  0.06683813     0.18200
C541        C  0.23269563  0.59615604  0.46568102    -0.28900
N542        N  0.22043688  0.57454806  0.99685029     0.15300
C543        C  0.24464462  0.59152774  0.03302435    -0.28900
C544        C  0.35831353  0.72109088  0.44739527    -0.29100
N545        N  0.37314186  0.73413631  0.96970877     0.15900
H546        H  0.36117862  0.72847092  0.41179375     0.18500
C547        C  0.36553120  0.71746453  0.01154090    -0.29200
H548        H  0.36984162  0.73285750  0.04362423     0.18500
H549        H  0.23454552  0.59029470  0.06797048     0.18500
H550        H  0.35066737  0.60342363  0.41156466     0.18600
H551        H  0.22030979  0.58921757  0.43250216     0.18500
C552        C  0.34876045  0.66113832  0.19477398     0.32400
C553        C  0.34080386  0.65723364  0.29447128     0.32400
C554        C  0.36780106  0.64682349  0.22035995    -0.03800
C555        C  0.36743462  0.70178079  0.22247442    -0.04600
C556        C  0.30702731  0.63305855  0.21808529    -0.04500
C557        C  0.36390469  0.64498513  0.26919164    -0.03800
C558        C  0.36328866  0.69938672  0.27133547    -0.04600
C559        C  0.30249712  0.63104420  0.26697435    -0.04500
C560        C  0.38586968  0.63487668  0.28309519    -0.29900
N561        N  0.40256423  0.63057492  0.24564246     0.16600
C562        C  0.39194771  0.63766629  0.20756249    -0.29900
H563        H  0.40176306  0.63699349  0.17308472     0.18600
C564        C  0.38641709  0.73885730  0.28780671    -0.28900
N565        N  0.40439757  0.76524176  0.25223668     0.15300
C566        C  0.39332913  0.74329259  0.21258464    -0.28900
C567        C  0.26223147  0.60677457  0.27713354    -0.29100
N568        N  0.24368256  0.59435781  0.23726732     0.15900
H569        H  0.24745589  0.60074777  0.31037115     0.18500
C570        C  0.27015459  0.60975011  0.20154767    -0.29200
H571        H  0.26290876  0.60666052  0.16627587     0.18500
H572        H  0.40424757  0.75655356  0.17889245     0.18500
H573        H  0.39002836  0.63161979  0.31792492     0.18600
H574        H  0.39079375  0.74776885  0.32334101     0.18500
O575        O  0.08227721  0.99815941  0.38595040    -0.72900
O576        O  0.05599037  0.96544790  0.45402362    -0.51800
C577        C  0.07687722  0.97419820  0.41649255     0.80800
O578        O  0.04858785  0.62821265  0.47496609    -0.57500
O579        O  0.00397514  0.61499566  0.42473408    -0.50600
C580        C  0.03460438  0.63909384  0.44831254     0.72800
O581        O  0.09064162  0.56115102  0.50129325    -0.72100
O582        O  0.06087490  0.49544537  0.51260419    -0.52700
C583        C  0.09260216  0.53341634  0.50966350     0.78800
O584        O  0.03877153  0.07304207  0.34448266    -0.57200
O585        O  0.52901163  0.61519090  0.34785032    -0.50400
C586        C  0.55173157  0.60693560  0.34224942     0.75400
Zr587      Zr  0.05249930  0.03009043  0.37568376     2.54700
O588        O  0.10193971  0.55816765  0.39894655    -0.77800
O589        O  0.51599344  0.96326047  0.31866246    -0.91200
Zr590      Zr  0.03785549  0.56617522  0.49704102     2.64700
O591        O  0.10229658  0.63246605  0.47378050    -0.96200
O592        O  0.07415511  0.60310616  0.56255657    -0.78200
O593        O  0.04231113  0.52089533  0.45627305    -0.81600
O594        O  0.02518594  0.55698753  0.42241490    -2.16300
O595        O  0.37290513  0.93084767  0.36267241    -0.65000
O596        O  0.39790674  0.99673149  0.36000657    -0.49500
C597        C  0.36984568  0.95799522  0.35522710     0.73800
O598        O  0.44885721  0.42659736  0.04943306    -0.57900
O599        O  0.94623978  0.90990660  0.00091103    -0.49900
C600        C  0.39824551  0.88346226  0.01577244     0.75600
O601        O  0.42415727  0.54845042  0.50430801    -0.69300
O602        O  0.45180100  0.58482518  0.43878725    -0.48000
C603        C  0.42754996  0.57061306  0.47335000     0.77000
O604        O  0.41484594  0.87189380  0.42680298    -0.64600
O605        O  0.46494869  0.89493324  0.47379294    -0.51800
C606        C  0.43405335  0.86647205  0.45203321     0.75400
Zr607      Zr  0.42035006  0.92888384  0.39868266     2.77500
O608        O  0.35432510  0.87440196  0.43319816    -0.95400
O609        O  0.41288648  0.89256421  0.32966610    -0.76200
Zr610      Zr  0.45956739  0.52512847  0.52251044     2.70100
O611        O  0.36523441  0.93313109  0.04965422    -0.77400
O612        O  0.92740180  0.49679663  0.07332182    -0.96500
Zr613      Zr  0.01976187  0.98679538  0.48968066     2.21500
Zr614      Zr  0.49031445  0.56710763  0.40970900     2.11100
O615        O  0.41067848  0.97382674  0.43237150    -2.45200
O616        O  0.46194447  0.97955711  0.45263966    -0.77200
O617        O  0.46980785  0.99109060  0.35830457    -0.69400
O618        O  0.98121618  0.49795192  0.52763542    -2.30400
O619        O  0.48490633  0.95033815  0.41002528    -2.26600
O620        O  0.97532676  0.55106010  0.48883062    -0.71200
H621        H  0.04927291  0.58418937  0.41711804     0.80800
H622        H  0.99497561  0.48016204  0.01747397     0.81900
H623        H  0.38364218  0.96359418  0.43394657     0.84100
H624        H  0.48751882  0.93075043  0.39873833     0.81700
H625        H  0.08989935  0.63225945  0.55521866     0.44800
H626        H  0.93839528  0.52464723  0.06573886     0.43700
H627        H  0.34641010  0.93260378  0.03217312     0.43400
H628        H  0.34120468  0.88626233  0.43869315     0.41400
H629        H  0.38488924  0.86679724  0.33188071     0.44500
H630        H  0.48657274  0.94399587  0.32115250     0.39300
H631        H  0.10781276  0.58231425  0.41417387     0.45400
H632        H  0.12336876  0.63443980  0.48777331     0.41800
H633        H  0.33957301  0.85449650  0.40829322     0.46700
H634        H  0.03334048  0.95807975  0.33316223     0.45400
H635        H  0.10795363  0.63248333  0.44073193     0.45600
H636        H  0.39860498  0.42944906  0.08759343     0.45900
O637        O  0.03032418  0.92839777  0.13432528    -0.72900
O638        O  0.06183849  0.95162003  0.20115654    -0.51800
C639        C  0.05172842  0.93066945  0.16419611     0.80800
O640        O  0.08264597  0.62882962  0.13022740    -0.57500
O641        O  0.01928484  0.60476921  0.12223304    -0.50600
C642        C  0.05740426  0.63309863  0.12056278     0.72800
O643        O  0.13610108  0.58189573  0.19563623    -0.72100
O644        O  0.10685947  0.51848439  0.22211570    -0.52700
C645        C  0.13679846  0.55530774  0.21232606     0.78800
O646        O  0.99377176  0.00428504  0.09338040    -0.57200
O647        O  0.50963071  0.55691266  0.07724211    -0.50400
C648        C  0.51295392  0.53012366  0.07234490     0.75400
Zr649      Zr  0.01125325  0.96991857  0.12977227     2.54700
O650        O  0.07624411  0.50159356  0.12922352    -0.77800
O651        O  0.50035065  0.92298686  0.04748825    -0.91200
Zr652      Zr  0.08506712  0.57921932  0.16319645     2.64700
O653        O  0.12016634  0.58984383  0.09018444    -0.96200
O654        O  0.14038106  0.64271794  0.19855504    -0.78200
O655        O  0.06254182  0.51131551  0.16534204    -0.81600
O656        O  0.01797635  0.52162198  0.16869628    -2.16300
O657        O  0.38299599  0.93391498  0.18719585    -0.65000
O658        O  0.40538657  0.98646974  0.14056799    -0.49500
C659        C  0.37743402  0.95370913  0.16229421     0.73800
O660        O  0.55462747  0.54220506  0.29898413    -0.57900
O661        O  0.09640498  0.02970114  0.29832591    -0.49900
C662        C  0.58131285  0.04721773  0.29595051     0.75600
O663        O  0.48577413  0.59312545  0.26409027    -0.69300
O664        O  0.46111458  0.57748999  0.19333757    -0.48000
C665        C  0.46612860  0.59295248  0.23320588     0.77000
O666        O  0.43997438  0.89156875  0.24889633    -0.64600
O667        O  0.50429967  0.91718055  0.24985375    -0.51800
C668        C  0.46599377  0.88746823  0.25415885     0.75400
Zr669      Zr  0.44032417  0.94215837  0.21371834     2.77500
O670        O  0.40333064  0.93443442  0.28198314    -0.95400
O671        O  0.39664338  0.87305263  0.18348663    -0.76200
Zr672      Zr  0.52049185  0.56574428  0.26698144     2.70100
O673        O  0.45463654  0.02516159  0.30042228    -0.77400
O674        O  0.06723407  0.63368364  0.26416569    -0.96500
Zr675      Zr  0.04939275  0.99451028  0.23817830     2.21500
Zr676      Zr  0.48219551  0.54329468  0.15386855     2.11100
O677        O  0.45649884  0.00620001  0.20734400    -2.45200
O678        O  0.49409886  0.98920117  0.26100409    -0.77200
O679        O  0.49503432  0.99375849  0.16611610    -0.69400
O680        O  0.06363735  0.55608716  0.23468575    -2.30400
O681        O  0.49105004  0.94173959  0.18068877    -2.26600
O682        O  0.03497486  0.58338889  0.19042321    -0.71200
H683        H  0.03309977  0.53708891  0.14233022     0.80800
H684        H  0.08933425  0.58015666  0.24415580     0.81900
H685        H  0.43475227  0.00534177  0.21789594     0.84100
H686        H  0.48163004  0.91446882  0.17723498     0.81700
H687        H  0.15136105  0.66373877  0.17493565     0.44800
H688        H  0.08937823  0.63965886  0.24421946     0.43700
H689        H  0.44070598  0.03458905  0.29057650     0.43400
H690        H  0.39719259  0.95221898  0.27587726     0.41400
H691        H  0.37213004  0.85826030  0.20361907     0.44500
H692        H  0.47970501  0.89590814  0.06166361     0.39300
H693        H  0.08466254  0.48882998  0.10902970     0.45400
H694        H  0.13948931  0.61978117  0.08628341     0.41800
H695        H  0.37733886  0.90666937  0.27883979     0.46700
H696        H  0.95764089  0.87881178  0.13684972     0.45400
H697        H  0.13689859  0.58264457  0.09586806     0.45600
H698        H  0.55837392  0.64897644  0.23928935     0.45900
C699        C  0.14914390  0.85389329  0.34185774     0.32400
C700        C  0.16076395  0.86543386  0.44157126     0.32400
C701        C  0.14034588  0.88002366  0.37039886    -0.03800
C702        C  0.12406194  0.81436916  0.37638419    -0.04600
C703        C  0.19181691  0.87605590  0.36017260    -0.04500
C704        C  0.14600846  0.88531649  0.41832665    -0.03800
C705        C  0.13040869  0.82199147  0.42399024    -0.04600
C706        C  0.19765346  0.88129835  0.40828359    -0.04500
C707        C  0.13516726  0.90798890  0.43392622    -0.29900
N708        N  0.12327820  0.91659300  0.39854621     0.16600
C709        C  0.12628647  0.89986892  0.35990961    -0.29900
H710        H  0.11814586  0.90133746  0.32660438     0.18600
C711        C  0.10962647  0.78568114  0.44576157    -0.28900
N712        N  0.09153275  0.75575684  0.41458412     0.15300
C713        C  0.09981454  0.77218538  0.37220591    -0.28900
C714        C  0.23790947  0.90165361  0.41202160    -0.29100
N715        N  0.25532473  0.90827373  0.36936040     0.15900
H716        H  0.25342188  0.91111892  0.44337753     0.18500
C717        C  0.22768414  0.89278418  0.33798559    -0.29200
H718        H  0.23333589  0.89363067  0.30149496     0.18500
H719        H  0.09052593  0.75504339  0.34067986     0.18500
H720        H  0.13529574  0.91711511  0.46882845     0.18600
H721        H  0.10933061  0.78123624  0.48167989     0.18500
C722        C  0.16705583  0.85789575  0.08657394     0.32400
C723        C  0.15873994  0.84962553  0.18599064     0.32400
C724        C  0.14745057  0.87325673  0.11468437    -0.03800
C725        C  0.14182797  0.81506600  0.10743138    -0.04600
C726        C  0.20565388  0.87935529  0.11413804    -0.04500
C727        C  0.14390498  0.86940881  0.16375523    -0.03800
C728        C  0.13756575  0.81055891  0.15582747    -0.04600
C729        C  0.20093870  0.87514994  0.16276827    -0.04500
C730        C  0.12194945  0.88013373  0.18000302    -0.29900
N731        N  0.11189887  0.89001158  0.14415678     0.16600
C732        C  0.12693148  0.88611409  0.10457020    -0.29900
H733        H  0.12185453  0.89080489  0.07101846     0.18600
C734        C  0.11625021  0.76965226  0.16365323    -0.28900
N735        N  0.10761662  0.75023621  0.12278172     0.15300
C736        C  0.12303654  0.77730006  0.08863173    -0.28900
C737        C  0.23736504  0.89231283  0.17888720    -0.29100
N738        N  0.26412706  0.90660640  0.14323393     0.15900
H739        H  0.24365127  0.89272317  0.21399858     0.18500
C740        C  0.24562148  0.89890064  0.10373158    -0.29200
H741        H  0.25977545  0.90553692  0.06992930     0.18500
H742        H  0.12171094  0.77008967  0.05273925     0.18500
H743        H  0.11240211  0.87912523  0.21518190     0.18600
H744        H  0.10854038  0.75522228  0.19651264     0.18500
C745        C  0.14666620  0.85610068  0.28154448    -0.14100
C746        C  0.15641987  0.84292924  0.24196182    -0.29200
H747        H  0.14200952  0.84389282  0.31066451     0.14900
H748        H  0.16468835  0.82486216  0.24966244     0.15500
C749        C  0.16240261  0.86965062  0.49827238    -0.14100
C750        C  0.17143851  0.85675429  0.02961314    -0.29200
H751        H  0.15646707  0.88905269  0.51200570     0.14900
H752        H  0.18555281  0.84424676  0.01816617     0.15500
C753        C  0.07322778  0.67372437  0.11290769    -0.10900
C754        C  0.08855828  0.70903600  0.11622648    -0.12500
C755        C  0.33717614  0.93687686  0.15522238    -0.10900
C756        C  0.30376232  0.92326093  0.14796894    -0.12500
C757        C  0.08780643  0.90071713  0.14816723    -0.10900
C758        C  0.06856520  0.91155759  0.15434898    -0.12500
C759        C  0.07191443  0.71529134  0.42652622    -0.10900
C760        C  0.05598564  0.68150073  0.44007885    -0.12500
C761        C  0.29555751  0.92753995  0.35829583    -0.10900
C762        C  0.33006904  0.94300315  0.35049349    -0.12500
C763        C  0.09480075  0.95515319  0.40799275    -0.10900
C764        C  0.10828143  0.93766047  0.40252064    -0.12500
C765        C  0.59427632  0.63853886  0.33592264    -0.16100
C766        C  0.62728742  0.65004389  0.32947411     0.07900
C767        C  0.62644347  0.12319504  0.31533426     0.09800
C768        C  0.61352372  0.08963044  0.30452214    -0.17000
C769        C  0.36419623  0.84341679  0.03142691    -0.16100
C770        C  0.34249940  0.83181735  0.06500210     0.07900
C771        C  0.55916674  0.51650373  0.06457585     0.09800
C772        C  0.55009889  0.53767976  0.06662553    -0.17000
C773        C  0.44665847  0.60954761  0.24350809    -0.10900
C774        C  0.42692513  0.62009777  0.24595962    -0.12500
C775        C  0.44968164  0.84538071  0.25909780    -0.10900
C776        C  0.42992998  0.80842646  0.25642320    -0.12500
C777        C  0.17372775  0.56754434  0.22267349    -0.10900
C778        C  0.20501543  0.57814967  0.23197543    -0.12500
C779        C  0.38084858  0.58771126  0.47877165    -0.10900
C780        C  0.40181556  0.57931618  0.47697969    -0.12500
C781        C  0.39844855  0.79035031  0.47380746    -0.10900
C782        C  0.41643435  0.82524573  0.46246948    -0.12500
C783        C  0.13307107  0.54660981  0.51210488    -0.10900
C784        C  0.16884176  0.56329441  0.51050111    -0.12500
C785        C  0.30980606  0.63852153  0.38679857    -0.14100
C786        C  0.34044849  0.65749191  0.35117256    -0.29200
H787        H  0.27964202  0.61959842  0.37568296     0.14900
H788        H  0.37035606  0.67669386  0.36358714     0.15500
C789        C  0.32460181  0.64199243  0.10205920    -0.14100
C790        C  0.35312491  0.66199854  0.13752674    -0.29200
H791        H  0.33382803  0.64591271  0.07106034     0.14900
H792        H  0.38406768  0.68112658  0.12499002     0.15500
C793        C  0.31862015  0.64629265  0.54199207     0.32400
C794        C  0.32207494  0.62613702  0.93942782     0.32400
C795        C  0.33318522  0.62670628  0.51328116    -0.03800
C796        C  0.27564896  0.62105032  0.52242796    -0.04600
C797        C  0.34084595  0.68679112  0.51364871    -0.04500
C798        C  0.33964217  0.61055075  0.96656607    -0.03800
C799        C  0.28267201  0.60591048  0.96908932    -0.04600
C800        C  0.34646799  0.67002296  0.95785129    -0.04500
C801        C  0.35125411  0.58748828  0.95674328    -0.29900
N802        N  0.35997585  0.57950834  0.99616690     0.16600
C803        C  0.35067432  0.61065012  0.52235311    -0.29900
H804        H  0.35853896  0.60756685  0.55469476     0.18200
C805        C  0.24327203  0.58329094  0.95833947    -0.28900
N806        N  0.21091755  0.58486588  0.50602019     0.15300
C807        C  0.23665562  0.59990923  0.54054720    -0.28900
C808        C  0.36156976  0.70574158  0.93719833    -0.29100
N809        N  0.37517922  0.74838915  0.48164005     0.15900
H810        H  0.36198226  0.71016160  0.90116057     0.18500
C811        C  0.36500758  0.72851137  0.52210570    -0.29200
H812        H  0.37437225  0.74321096  0.55506817     0.18500
H813        H  0.22785804  0.59639479  0.57643401     0.18500
H814        H  0.35264598  0.57676697  0.92333256     0.18600
H815        H  0.23182819  0.57438578  0.92455252     0.18500
C816        C  0.33949524  0.64072894  0.68811662     0.32400
C817        C  0.33670912  0.63463835  0.78737060     0.32400
C818        C  0.35769862  0.62316644  0.70880882    -0.03800
C819        C  0.36086553  0.68056630  0.71722485    -0.04600
C820        C  0.29866766  0.61343695  0.71379394    -0.04500
C821        C  0.35627952  0.62024748  0.75735871    -0.03800
C822        C  0.35940653  0.67689663  0.76565051    -0.04600
C823        C  0.29625824  0.61112374  0.76309138    -0.04500
C824        C  0.37312297  0.60302271  0.76633014    -0.29900
N825        N  0.38440652  0.59527811  0.72624330     0.16600
C826        C  0.37522939  0.60726951  0.69128178    -0.29900
H827        H  0.38050293  0.60415452  0.65556625     0.18600
C828        C  0.37973171  0.71496628  0.78405069    -0.28900
N829        N  0.39342766  0.74172221  0.74999739     0.15300
C830        C  0.38237623  0.72165543  0.70921632    -0.28900
C831        C  0.26012885  0.60184690  0.77564131    -0.29100
N832        N  0.24153724  0.59638644  0.73714945     0.15900
H833        H  0.24977711  0.60237615  0.80983173     0.18500
C834        C  0.26438357  0.60306917  0.70018623    -0.29200
H835        H  0.25808210  0.60460651  0.66575863     0.18500
H836        H  0.38900786  0.73577457  0.67638623     0.18500
H837        H  0.37636041  0.59605168  0.79969333     0.18600
H838        H  0.38373920  0.72270991  0.81988445     0.18500
O839        O  0.07698925  0.98748313  0.86306014    -0.72900
O840        O  0.04128674  0.93631469  0.91424026    -0.51800
C841        C  0.06961246  0.95741087  0.88435396     0.80800
O842        O  0.05863878  0.61997686  0.95341648    -0.57500
O843        O  0.00652203  0.60328975  0.91529810    -0.50600
C844        C  0.04089437  0.62951692  0.93208062     0.72800
O845        O  0.10101635  0.55128011  0.98448610    -0.72100
O846        O  0.07461113  0.48493902  0.97649889    -0.52700
C847        C  0.10421487  0.52338090  0.98396401     0.78800
O848        O  0.01389122  0.04542194  0.83175102    -0.57200
O849        O  0.52293006  0.59722142  0.85655020    -0.50400
C850        C  0.54533465  0.59483128  0.82976201     0.75400
Zr851      Zr  0.03688732  0.00972311  0.85751760     2.54700
O852        O  0.10525473  0.56335036  0.87357396    -0.77800
O853        O  0.50511920  0.94298352  0.81759746    -0.91200
Zr854      Zr  0.05018377  0.55885731  0.97475381     2.64700
O855        O  0.11706827  0.61271205  0.94080420    -0.96200
O856        O  0.07892467  0.60686973  0.03883545    -0.78200
O857        O  0.05256009  0.51207767  0.93103115    -0.81600
O858        O  0.03121135  0.54995938  0.90317523    -2.16300
O859        O  0.37146330  0.93064466  0.86524482    -0.65000
O860        O  0.40331690  0.99867720  0.86226986    -0.49500
C861        C  0.37235228  0.96066309  0.85861462     0.73800
O862        O  0.41018875  0.45387061  0.50848274    -0.57900
O863        O  0.95191336  0.93534217  0.52201872    -0.49900
C864        C  0.40391522  0.89506600  0.51365024     0.75600
O865        O  0.41130483  0.50419482  0.01183748    -0.69300
O866        O  0.43490675  0.54750412  0.95215214    -0.48000
C867        C  0.41314090  0.53040563  0.98841768     0.77000
O868        O  0.40234575  0.85897285  0.92392905    -0.64600
O869        O  0.45347353  0.87575642  0.96470267    -0.51800
C870        C  0.42045387  0.84985321  0.94520980     0.75400
Zr871      Zr  0.41474824  0.92038068  0.89678072     2.77500
O872        O  0.34972447  0.86990908  0.93555009    -0.95400
O873        O  0.40209451  0.87923130  0.83072440    -0.76200
Zr874      Zr  0.43934842  0.46812312  0.00299722     2.70100
O875        O  0.35971409  0.93382520  0.54551961    -0.77400
O876        O  0.93156087  0.52691059  0.57641122    -0.96500
Zr877      Zr  0.00730209  0.95468333  0.95722202     2.21500
Zr878      Zr  0.47711070  0.53959619  0.90917470     2.11100
O879        O  0.41257617  0.96931227  0.93387022    -2.45200
O880        O  0.46122785  0.96884160  0.94883562    -0.77200
O881        O  0.46634754  0.98204605  0.85621811    -0.69400
O882        O  0.99597094  0.48849103  0.98964917    -2.30400
O883        O  0.47696314  0.93573320  0.90202920    -2.26600
O884        O  0.98361319  0.53157591  0.97814650    -0.71200
H885        H  0.05407027  0.57722746  0.89538103     0.80800
H886        H  0.97400097  0.48672902  0.55721376     0.81900
H887        H  0.38642556  0.96130603  0.93658798     0.84100
H888        H  0.47585951  0.91356749  0.89140222     0.81700
H889        H  0.09476048  0.63442131  0.02564080     0.44800
H890        H  0.94497359  0.55385158  0.56276201     0.43700
H891        H  0.34134552  0.93629152  0.53193395     0.43400
H892        H  0.33790776  0.88316780  0.93989864     0.41400
H893        H  0.37820354  0.85122293  0.83967247     0.44500
H894        H  0.47574189  0.92510192  0.81975893     0.39300
H895        H  0.11770914  0.55372804  0.88758374     0.45400
H896        H  0.11612902  0.62999472  0.92090531     0.41800
H897        H  0.33351590  0.84869041  0.91221393     0.46700
H898        H  0.02903568  0.94349797  0.81221254     0.45400
H899        H  0.13330602  0.63075617  0.96634738     0.45600
H900        H  0.49325426  0.60552760  0.55769896     0.45900
O901        O  0.00759082  0.89625435  0.62472503    -0.72900
O902        O  0.04680748  0.92743523  0.68512716    -0.51800
C903        C  0.03285070  0.90269165  0.65176848     0.80800
O904        O  0.06338916  0.61831213  0.63960361    -0.57500
O905        O  0.00621092  0.58733860  0.60315227    -0.50600
C906        C  0.03850613  0.61934493  0.61990748     0.72800
O907        O  0.13348067  0.58304441  0.67929419    -0.72100
O908        O  0.11263759  0.52325988  0.70747717    -0.52700
C909        C  0.13904407  0.56131857  0.69952873     0.78800
O910        O  0.91091454  0.89188213  0.61807395    -0.57200
O911        O  0.39790806  0.42210505  0.60300135    -0.50400
C912        C  0.38592498  0.38606197  0.60750687     0.75400
Zr913      Zr  0.98129615  0.93042835  0.61082461     2.54700
O914        O  0.00510809  0.42591684  0.53349249    -0.77800
O915        O  0.43440375  0.85809883  0.57553319    -0.91200
Zr916      Zr  0.07937532  0.57161896  0.63930723     2.64700
O917        O  0.12835784  0.59875343  0.57547311    -0.96200
O918        O  0.13932400  0.64019574  0.65884847    -0.78200
O919        O  0.06251923  0.50535645  0.64155438    -0.81600
O920        O  0.02551606  0.52239896  0.59382901    -2.16300
O921        O  0.37031740  0.91611284  0.69217143    -0.65000
O922        O  0.39647157  0.96884437  0.64393935    -0.49500
C923        C  0.36736268  0.93779368  0.66709421     0.73800
O924        O  0.53207702  0.50644120  0.78562327    -0.57900
O925        O  0.08525794  0.01671677  0.76726275    -0.49900
C926        C  0.57227388  0.02151123  0.78827018     0.75600
O927        O  0.45143761  0.53932281  0.73882775    -0.69300
O928        O  0.42937169  0.52496226  0.66794389    -0.48000
C929        C  0.43314391  0.54030346  0.70735476     0.77000
O930        O  0.42062953  0.86531734  0.75403314    -0.64600
O931        O  0.48383635  0.88785042  0.75782890    -0.51800
C932        C  0.44552850  0.86000017  0.76168478     0.75400
Zr933      Zr  0.42357649  0.91824179  0.71942261     2.77500
O934        O  0.39008763  0.91878639  0.78659231    -0.95400
O935        O  0.36658495  0.85204240  0.69054325    -0.76200
Zr936      Zr  0.49270994  0.51937067  0.74832525     2.70100
O937        O  0.46346902  0.02553723  0.80113080    -0.77400
O938        O  0.05560551  0.62064516  0.74623168    -0.96500
Zr939      Zr  0.03046534  0.96661663  0.71789561     2.21500
Zr940      Zr  0.44865856  0.48557361  0.64193894     2.11100
O941        O  0.44776006  0.98525548  0.70690945    -2.45200
O942        O  0.48215599  0.96588268  0.76047324    -0.77200
O943        O  0.47576034  0.96138887  0.66516998    -0.69400
O944        O  0.05686591  0.54627790  0.71027107    -2.30400
O945        O  0.46716611  0.90723942  0.68667222    -2.26600
O946        O  0.02540475  0.56639134  0.67189583    -0.71200
H947        H  0.03676536  0.53255084  0.56368573     0.80800
H948        H  0.08113499  0.57191133  0.71984542     0.81900
H949        H  0.42844657  0.98787573  0.71803041     0.84100
H950        H  0.45616950  0.87933967  0.68422588     0.81700
H951        H  0.13315906  0.65851530  0.65739919     0.44800
H952        H  0.07976070  0.62812444  0.72944502     0.43700
H953        H  0.43649268  0.00490758  0.78981602     0.43400
H954        H  0.38459525  0.93657225  0.77771589     0.41400
H955        H  0.34563035  0.84032728  0.71537451     0.44500
H956        H  0.42274201  0.83809290  0.60055296     0.39300
H957        H  0.01470217  0.41118570  0.53976728     0.45400
H958        H  0.14316883  0.62840445  0.57441928     0.41800
H959        H  0.36340781  0.89128885  0.78671694     0.46700
H960        H  0.95599822  0.86673553  0.54828728     0.45400
H961        H  0.14809572  0.59690792  0.58592586     0.45600
H962        H  0.52811483  0.60001155  0.72105996     0.45900
C963        C  0.15370168  0.84906675  0.83765397     0.32400
C964        C  0.15878664  0.85981178  0.93647768     0.32400
C965        C  0.13839878  0.86957242  0.86176710    -0.03800
C966        C  0.13098701  0.80962899  0.86831639    -0.04600
C967        C  0.19502645  0.87502449  0.85834423    -0.04500
C968        C  0.14070456  0.87506381  0.90995163    -0.03800
C969        C  0.13373510  0.81571577  0.91696498    -0.04600
C970        C  0.19836152  0.88076153  0.90660996    -0.04500
C971        C  0.12981248  0.89862370  0.92043601    -0.29900
N972        N  0.12131543  0.90707043  0.88137869     0.16600
C973        C  0.12645523  0.88966139  0.84576059    -0.29900
H974        H  0.12269085  0.89226402  0.81048506     0.18600
C975        C  0.11421752  0.77837513  0.93683613    -0.28900
N976        N  0.09971365  0.74958301  0.90387778     0.15300
C977        C  0.10960774  0.76787753  0.86223636    -0.28900
C978        C  0.23896095  0.90574405  0.91335397    -0.29100
N979        N  0.25897056  0.91482872  0.87195127     0.15900
H980        H  0.25281576  0.91598552  0.94586304     0.18500
C981        C  0.23265578  0.89644222  0.83874369    -0.29200
H982        H  0.24041745  0.89793468  0.80274543     0.18500
H983        H  0.10259865  0.75218730  0.82985614     0.18500
H984        H  0.12913920  0.90976684  0.95386374     0.18600
H985        H  0.11163076  0.77269076  0.97291755     0.18500
C986        C  0.16037031  0.84709364  0.58905473     0.32400
C987        C  0.14905800  0.83615008  0.68764794     0.32400
C988        C  0.14425682  0.86575108  0.61669629    -0.03800
C989        C  0.13061125  0.80295876  0.60841561    -0.04600
C990        C  0.19723058  0.86407945  0.61745945    -0.04500
C991        C  0.13863248  0.86028135  0.66580408    -0.03800
C992        C  0.12517206  0.79767686  0.65665511    -0.04600
C993        C  0.19122459  0.85852090  0.66582670    -0.04500
C994        C  0.11003003  0.86310919  0.67935496    -0.29900
N995        N  0.09873366  0.87015116  0.64224494     0.16600
C996        C  0.11838521  0.87118450  0.60442039    -0.29900
H997        H  0.11137649  0.87197364  0.57016256     0.18600
C998        C  0.09825839  0.75628032  0.66446976    -0.28900
N999        N  0.08730650  0.73657299  0.62382570     0.15300
C1000       C  0.10673047  0.76433809  0.58962073    -0.28900
C1001       C  0.22728407  0.87578463  0.68302806    -0.29100
N1002       N  0.25490364  0.89165203  0.64805714     0.15900
H1003       H  0.23307106  0.87651655  0.71844344     0.18500
C1004       C  0.23741739  0.88484241  0.60810378    -0.29200
H1005       H  0.25274331  0.89409682  0.57482473     0.18500
H1006       H  0.10466932  0.75685147  0.55378963     0.18500
H1007       H  0.09588916  0.85688290  0.71313275     0.18600
H1008       H  0.08828277  0.74138055  0.69730463     0.18500
C1009       C  0.15757188  0.85377168  0.78123447    -0.14100
C1010       C  0.14163117  0.82687197  0.74335160    -0.29200
H1011       H  0.17712958  0.88551577  0.77108451     0.14900
H1012       H  0.12150619  0.79491241  0.75239756     0.15500
C1013       C  0.15850834  0.86604195  0.99304985    -0.14100
C1014       C  0.16647145  0.84983223  0.53229793    -0.29200
H1015       H  0.14444133  0.87853112  0.00430512     0.14900
H1016       H  0.17369290  0.83139486  0.51848223     0.15500
C1017       C  0.04907003  0.65862882  0.61670941    -0.10900
C1018       C  0.06488121  0.69432837  0.61859713    -0.12500
C1019       C  0.32828559  0.92402061  0.66054573    -0.10900
C1020       C  0.29484366  0.91006595  0.65347942    -0.12500
C1021       C  0.06986689  0.87431477  0.64244406    -0.10900
C1022       C  0.04854029  0.88258082  0.64401074    -0.12500
C1023       C  0.07925217  0.70790400  0.91306538    -0.10900
C1024       C  0.06193120  0.67252572  0.92322777    -0.12500
C1025       C  0.29981661  0.93549892  0.86342125    -0.10900
C1026       C  0.33407135  0.94995838  0.85583524    -0.12500
C1027       C  0.09389471  0.94578192  0.87637194    -0.10900
C1028       C  0.10814183  0.92931894  0.87788457    -0.12500
C1029       C  0.58396763  0.62971839  0.81186585    -0.16100
C1030       C  0.61068576  0.63350244  0.79095016     0.07900
C1031       C  0.62264310  0.09970587  0.80167426     0.09800
C1032       C  0.60587575  0.06443985  0.79341335    -0.17000
C1033       C  0.37111583  0.85199953  0.51936816    -0.16100
C1034       C  0.34085650  0.82966466  0.54252101     0.07900
C1035       C  0.32671852  0.33555777  0.56357767     0.09800
C1036       C  0.34565585  0.35165603  0.59686615    -0.17000
C1037       C  0.41611309  0.56004536  0.71643468    -0.10900
C1038       C  0.40160601  0.57646992  0.72152274    -0.12500
C1039       C  0.42909992  0.81846613  0.76484321    -0.10900
C1040       C  0.41333593  0.78317659  0.75774674    -0.12500
C1041       C  0.17664166  0.58042689  0.71785221    -0.10900
C1042       C  0.20627679  0.58931207  0.73218829    -0.12500
C1043       C  0.37436547  0.55826112  0.00020057    -0.10900
C1044       C  0.38933999  0.54231766  0.00108599    -0.12500
C1045       C  0.38797816  0.77366319  0.96051645    -0.10900
C1046       C  0.40142895  0.80773144  0.95156055    -0.12500
C1047       C  0.14375700  0.53715729  0.99257722    -0.10900
C1048       C  0.17881988  0.55360383  0.99689293    -0.12500
C1049       C  0.31535971  0.61943365  0.88308375    -0.14100
C1050       C  0.34213358  0.63675934  0.84366238    -0.29200
H1051       H  0.28441164  0.59948030  0.87446321     0.14900
H1052       H  0.37329813  0.65684367  0.85187249     0.15500
C1053       C  0.32195897  0.64994184  0.59908900    -0.14100
C1054       C  0.33921760  0.64114329  0.63107968    -0.29200
H1055       H  0.30767190  0.66108521  0.61500134     0.14900
H1056       H  0.35480303  0.63160287  0.61582239     0.15500
C1057       C  0.82020743  0.13811917  0.03517576     0.32400
C1058       C  0.81512294  0.14063758  0.43600070     0.32400
C1059       C  0.83631447  0.11874273  0.00925737    -0.03800
C1060       C  0.77773855  0.11111474  0.01394170    -0.04600
C1061       C  0.84131770  0.17702973  0.00506710    -0.04500
C1062       C  0.83053755  0.12256634  0.45994759    -0.03800
C1063       C  0.77616330  0.12175300  0.46667662    -0.04600
C1064       C  0.84204854  0.18341788  0.45614442    -0.04500
C1065       C  0.84502992  0.10394266  0.44419766    -0.29900
N1066       N  0.85665319  0.09634244  0.48035979     0.16600
C1067       C  0.84874340  0.09867469  0.02324826    -0.29900
H1068       H  0.85250280  0.09492066  0.05805723     0.18200
C1069       C  0.73734894  0.10454577  0.45824766    -0.28900
N1070       N  0.71357521  0.07475040  0.99584085     0.15300
C1071       C  0.73870321  0.09089770  0.03097099    -0.28900
C1072       C  0.85830601  0.21969942  0.43729655    -0.29100
N1073       N  0.86719536  0.23519169  0.97105599     0.15900
H1074       H  0.85820070  0.22531187  0.40178784     0.18500
C1075       C  0.85935137  0.21753210  0.01233673    -0.29200
H1076       H  0.86518706  0.23265317  0.04495124     0.18500
H1077       H  0.72942911  0.08911911  0.06643073     0.18500
H1078       H  0.84867115  0.09806240  0.40893163     0.18600
H1079       H  0.72538844  0.09872763  0.42498570     0.18500
C1080       C  0.84564179  0.15819469  0.18623343     0.32400
C1081       C  0.84039083  0.15385582  0.28618770     0.32400
C1082       C  0.86621096  0.14451971  0.21015170    -0.03800
C1083       C  0.86395617  0.19850817  0.21496229    -0.04600
C1084       C  0.80409997  0.12924863  0.21107217    -0.04500
C1085       C  0.86344241  0.14252380  0.25899782    -0.03800
C1086       C  0.86095081  0.19550390  0.26372757    -0.04600
C1087       C  0.80125674  0.12710546  0.26068939    -0.04500
C1088       C  0.88491495  0.13151961  0.27157074    -0.29900
N1089       N  0.90055958  0.12674876  0.23346516     0.16600
C1090       C  0.88953766  0.13439629  0.19607345    -0.29900
H1091       H  0.89825238  0.13316021  0.16120642     0.18600
C1092       C  0.88028860  0.23384431  0.28153858    -0.28900
N1093       N  0.89528993  0.26063917  0.24701532     0.15300
C1094       C  0.88574189  0.23992320  0.20647631    -0.28900
C1095       C  0.76531547  0.11683362  0.27399191    -0.29100
N1096       N  0.74725070  0.11239357  0.23630297     0.15900
H1097       H  0.75504301  0.11755684  0.30804989     0.18500
C1098       C  0.76997811  0.12032342  0.19873231    -0.29200
H1099       H  0.76403776  0.12494326  0.16578401     0.18500
H1100       H  0.89444160  0.25394606  0.17322351     0.18500
H1101       H  0.88922782  0.12766919  0.30605905     0.18600
H1102       H  0.88371848  0.24182978  0.31734353     0.18500
O1103       O  0.57630250  0.49282631  0.39255136    -0.72900
O1104       O  0.54957056  0.46093773  0.46085401    -0.51800
C1105       C  0.57077169  0.46927749  0.42373955     0.80800
O1106       O  0.55613220  0.13221036  0.44313898    -0.57500
O1107       O  0.50099359  0.11072153  0.40707498    -0.50600
C1108       C  0.53655543  0.13846652  0.42016768     0.72800
O1109       O  0.59529144  0.07917886  0.49839189    -0.72100
O1110       O  0.57162131  0.01425709  0.50550301    -0.52700
C1111       C  0.60056356  0.05331250  0.50329825     0.78800
O1112       O  0.53544058  0.57018040  0.35262047    -0.57200
O1113       O  0.03050418  0.11660242  0.33942547    -0.50400
C1114       C  0.05412946  0.10949041  0.33385402     0.75400
Zr1115     Zr  0.54780602  0.52605581  0.38323581     2.54700
O1116       O  0.60667420  0.06407834  0.38657287    -0.77800
O1117       O  0.01049551  0.46222869  0.32233802    -0.91200
Zr1118     Zr  0.53700962  0.07399656  0.48738120     2.64700
O1119       O  0.52371622  0.11742590  0.52134629    -0.96200
O1120       O  0.59723504  0.12620769  0.52742932    -0.78200
O1121       O  0.53787748  0.02603819  0.45172163    -0.81600
O1122       O  0.52766425  0.05945786  0.41162703    -2.16300
O1123       O  0.87252406  0.44352975  0.36654536    -0.65000
O1124       O  0.90107295  0.51059718  0.37156924    -0.49500
C1125       C  0.87199492  0.47288553  0.36242736     0.73800
O1126       O  0.93922229  0.93771922  0.05814558    -0.57900
O1127       O  0.46840448  0.40305894  0.99970155    -0.49900
C1128       C  0.95698213  0.41170906  0.04072715     0.75600
O1129       O  0.92563569  0.04713995  0.49764935    -0.69300
O1130       O  0.94910415  0.08099688  0.43049225    -0.48000
C1131       C  0.92614662  0.06717950  0.46635810     0.77000
O1132       O  0.90222315  0.37105086  0.42187359    -0.64600
O1133       O  0.95114555  0.38613924  0.46584527    -0.51800
C1134       C  0.91920728  0.36132250  0.44435776     0.75400
Zr1135     Zr  0.91564883  0.43354321  0.39882263     2.77500
O1136       O  0.85001644  0.37801230  0.43274483    -0.95400
O1137       O  0.90851998  0.40713097  0.32323108    -0.76200
Zr1138     Zr  0.96609200  0.02946232  0.51521764     2.70100
O1139       O  0.86957820  0.39729931  0.01353511    -0.77400
O1140       O  0.44781712  0.03026556  0.06577320    -0.96500
Zr1141     Zr  0.51195888  0.48110208  0.49627624     2.21500
Zr1142     Zr  0.99166542  0.06770363  0.40105126     2.11100
O1143       O  0.90858854  0.47833191  0.43802954    -2.45200
O1144       O  0.95901669  0.47930396  0.45491703    -0.77200
O1145       O  0.96899537  0.49745604  0.36509093    -0.69400
O1146       O  0.48837159  0.01109783  0.52677474    -2.30400
O1147       O  0.97744416  0.44810294  0.40725960    -2.26600
O1148       O  0.47190612  0.05057362  0.47615965    -0.71200
H1149       H  0.55278287  0.08502503  0.40296462     0.80800
H1150       H  0.48729402  0.98273177  0.05267188     0.81900
H1151       H  0.88203456  0.46938328  0.44032315     0.84100
H1152       H  0.97735046  0.42694101  0.39491896     0.81700
H1153       H  0.60954802  0.15192077  0.51126372     0.44800
H1154       H  0.46619828  0.05694249  0.05033108     0.43700
H1155       H  0.85440351  0.39893096  0.03848631     0.43400
H1156       H  0.83683172  0.38971935  0.43911817     0.41400
H1157       H  0.88705934  0.37736719  0.32723357     0.44500
H1158       H  0.98110544  0.44420530  0.32383309     0.39300
H1159       H  0.61077135  0.08616182  0.40513667     0.45400
H1160       H  0.50853496  0.10645292  0.55063216     0.41800
H1161       H  0.83533103  0.35871222  0.40733601     0.46700
H1162       H  0.52645492  0.45360669  0.33866418     0.45400
H1163       H  0.54962100  0.14413289  0.52825753     0.45600
H1164       H  0.92574108  0.02866851  0.07050191     0.45900
O1165       O  0.52474373  0.42624609  0.13919691    -0.72900
O1166       O  0.55476757  0.44710899  0.20689522    -0.51800
C1167       C  0.54497021  0.42687525  0.16938289     0.80800
O1168       O  0.57611485  0.13099865  0.13566148    -0.57500
O1169       O  0.51483354  0.09950552  0.10905601    -0.50600
C1170       C  0.54962490  0.13175340  0.12104382     0.72800
O1171       O  0.63903456  0.09513563  0.18323472    -0.72100
O1172       O  0.61782314  0.03764925  0.21956661    -0.52700
C1173       C  0.64390738  0.07497474  0.20780963     0.78800
O1174       O  0.48480228  0.49539811  0.08764664    -0.57200
O1175       O  0.02153089  0.06499831  0.07503326    -0.50400
C1176       C  0.02257185  0.03686045  0.07434000     0.75400
Zr1177     Zr  0.50675001  0.46907766  0.13328377     2.54700
O1178       O  0.58675717  0.00894288  0.08906738    -0.77800
O1179       O  0.94575527  0.38851632  0.12433329    -0.91200
Zr1180     Zr  0.58563285  0.08101833  0.14155327     2.64700
O1181       O  0.62201493  0.09180476  0.07014078    -0.96200
O1182       O  0.64609474  0.15238266  0.14205325    -0.78200
O1183       O  0.57182616  0.01747006  0.15024779    -0.81600
O1184       O  0.53196434  0.03344793  0.09456552    -2.16300
O1185       O  0.88088518  0.43202416  0.17449604    -0.65000
O1186       O  0.90338594  0.49436454  0.15471541    -0.49500
C1187       C  0.87544878  0.45573413  0.15991875     0.73800
O1188       O  0.05975407  0.04599043  0.29257947    -0.57900
O1189       O  0.58963432  0.52392573  0.30397755    -0.49900
C1190       C  0.08100925  0.54565380  0.30944942     0.75600
O1191       O  0.98585047  0.09176694  0.25507616    -0.69300
O1192       O  0.96082163  0.07381803  0.18449730    -0.48000
C1193       C  0.96538983  0.08993957  0.22375872     0.77000
O1194       O  0.92756785  0.38754902  0.25105530    -0.64600
O1195       O  0.99027643  0.41028279  0.26222026    -0.51800
C1196       C  0.95168195  0.38152801  0.26099737     0.75400
Zr1197     Zr  0.92985258  0.44321087  0.22405408     2.77500
O1198       O  0.88561151  0.44075568  0.28037116    -0.95400
O1199       O  0.87101948  0.37087018  0.22471089    -0.76200
Zr1200     Zr  0.02328194  0.06706503  0.26060732     2.70100
O1201       O  0.96001371  0.53960167  0.31625049    -0.77400
O1202       O  0.56255678  0.13009532  0.25103724    -0.96500
Zr1203     Zr  0.54362939  0.49153554  0.24273044     2.21500
Zr1204     Zr  0.98537402  0.04217662  0.14799867     2.11100
O1205       O  0.95555922  0.51214088  0.22549646    -2.45200
O1206       O  0.98736416  0.48917202  0.26979026    -0.77200
O1207       O  0.94947316  0.46532864  0.14658246    -0.69400
O1208       O  0.56383350  0.05672232  0.21533408    -2.30400
O1209       O  0.98081769  0.44127099  0.20019606    -2.26600
O1210       O  0.53201085  0.07597963  0.17380688    -0.71200
H1211       H  0.54129135  0.04207965  0.06373412     0.80800
H1212       H  0.58734487  0.08076325  0.22849788     0.81900
H1213       H  0.93472734  0.51286499  0.23557258     0.84100
H1214       H  0.97426173  0.41590957  0.19281851     0.81700
H1215       H  0.64590518  0.16248293  0.17288894     0.44800
H1216       H  0.58673850  0.13722219  0.23472465     0.43700
H1217       H  0.93966171  0.51023612  0.31000562     0.43400
H1218       H  0.87629271  0.45323679  0.26537946     0.41400
H1219       H  0.84767817  0.36898157  0.22083553     0.44500
H1220       H  0.92284767  0.38268142  0.14260810     0.39300
H1221       H  0.59059193  0.98898233  0.08155200     0.45400
H1222       H  0.63825928  0.12110613  0.06348113     0.41800
H1223       H  0.86138479  0.41174109  0.28315769     0.46700
H1224       H  0.45335784  0.37767469  0.14148015     0.45400
H1225       H  0.64184555  0.08928830  0.07825895     0.45600
H1226       H  0.05856337  0.14893448  0.23010134     0.45900
C1227       C  0.65134028  0.35944509  0.33882043     0.32400
C1228       C  0.65845259  0.36096804  0.43749697     0.32400
C1229       C  0.63751643  0.37926026  0.37040534    -0.03800
C1230       C  0.62842747  0.31818864  0.36455647    -0.04600
C1231       C  0.69327735  0.38275926  0.35725192    -0.04500
C1232       C  0.64100552  0.37994436  0.41860354    -0.03800
C1233       C  0.63212324  0.31969832  0.41290770    -0.04600
C1234       C  0.69727820  0.38370938  0.40559099    -0.04500
C1235       C  0.62797392  0.39989117  0.43781612    -0.29900
N1236       N  0.61697186  0.41125706  0.40429283     0.16600
C1237       C  0.62258855  0.39893098  0.36347447    -0.29900
H1238       H  0.61648575  0.40417655  0.33090824     0.18600
C1239       C  0.61103336  0.28090039  0.42781023    -0.28900
N1240       N  0.59486064  0.25568538  0.39165990     0.15300
C1241       C  0.60489124  0.27738133  0.35295911    -0.28900
C1242       C  0.73782125  0.40811845  0.41127406    -0.29100
N1243       N  0.75743793  0.42131912  0.36957858     0.15900
H1244       H  0.75203754  0.41566914  0.44331806     0.18500
C1245       C  0.73085944  0.40619420  0.33680980    -0.29200
H1246       H  0.73839478  0.41173710  0.30063721     0.18500
H1247       H  0.59647117  0.26457242  0.31905534     0.18500
H1248       H  0.62689982  0.40605262  0.47369194     0.18600
H1249       H  0.60837860  0.27153258  0.46244475     0.18500
C1250       C  0.66206814  0.35649307  0.08583440     0.32400
C1251       C  0.65726235  0.35172800  0.18629278     0.32400
C1252       C  0.64485792  0.37438868  0.11451581    -0.03800
C1253       C  0.63591005  0.31408846  0.10909950    -0.04600
C1254       C  0.70137237  0.37718380  0.11190756    -0.04500
C1255       C  0.64309001  0.37222172  0.16390542    -0.03800
C1256       C  0.63344285  0.31144897  0.15785453    -0.04600
C1257       C  0.69846007  0.37475095  0.16072731    -0.04500
C1258       C  0.61923006  0.38065368  0.18038480    -0.29900
N1259       N  0.60671009  0.38808023  0.14495371     0.16600
C1260       C  0.62142073  0.38411466  0.10500652    -0.29900
H1261       H  0.61379334  0.38593910  0.07155499     0.18600
C1262       C  0.60984003  0.27048765  0.16785175    -0.28900
N1263       N  0.59800138  0.24901487  0.12814551     0.15300
C1264       C  0.61376499  0.27499140  0.09255132    -0.28900
C1265       C  0.73538362  0.39129459  0.17501657    -0.29100
N1266       N  0.76079247  0.40375814  0.13815482     0.15900
H1267       H  0.74302404  0.39316758  0.20987711     0.18500
C1268       C  0.74078328  0.39522826  0.09968902    -0.29200
H1269       H  0.75366122  0.40085642  0.06530913     0.18500
H1270       H  0.61015080  0.26606876  0.05704042     0.18500
H1271       H  0.60930114  0.37895978  0.21545688     0.18600
H1272       H  0.60257043  0.25734132  0.20144537     0.18500
C1273       C  0.64798529  0.36125014  0.28262016    -0.14100
C1274       C  0.65760126  0.34776499  0.24294658    -0.29200
H1275       H  0.63732677  0.37696646  0.27493996     0.14900
H1276       H  0.66856298  0.33230031  0.25112557     0.15500
C1277       C  0.65846618  0.35999322  0.49451650    -0.14100
C1278       C  0.66546812  0.35407375  0.02798753    -0.29200
H1279       H  0.65085164  0.37727051  0.51077425     0.14900
H1280       H  0.67776822  0.33953577  0.01759852     0.15500
C1281       C  0.56052479  0.17125349  0.11993533    -0.10900
C1282       C  0.57632649  0.20686415  0.12369876    -0.12500
C1283       C  0.83546051  0.43755112  0.14788256    -0.10900
C1284       C  0.80122979  0.42194138  0.14105492    -0.12500
C1285       C  0.58116429  0.39710009  0.15037938    -0.10900
C1286       C  0.56150041  0.40738676  0.15856191    -0.12500
C1287       C  0.57339687  0.21389376  0.39586313    -0.10900
C1288       C  0.55630501  0.17913621  0.40591122    -0.12500
C1289       C  0.79860413  0.44406023  0.36081296    -0.10900
C1290       C  0.83360930  0.46074759  0.35568372    -0.12500
C1291       C  0.58875366  0.45009918  0.41650380    -0.10900
C1292       C  0.60213579  0.43246098  0.41082815    -0.12500
C1293       C  0.09656300  0.14192304  0.32723332    -0.16100
C1294       C  0.12989800  0.15431290  0.32050076     0.07900
C1295       C  0.12923329  0.62164972  0.32827277     0.09800
C1296       C  0.11518978  0.58759134  0.31792489    -0.17000
C1297       C  0.99791124  0.43443917  0.05223932    -0.16100
C1298       C  0.03136619  0.46658813  0.05428939     0.07900
C1299       C  0.05481219  0.01034814  0.05309084     0.09800
C1300       C  0.05498596  0.03828382  0.05954218    -0.17000
C1301       C  0.94472911  0.10558288  0.23238508    -0.10900
C1302       C  0.92470500  0.11586899  0.23336818    -0.12500
C1303       C  0.93450092  0.33904188  0.26112940    -0.10900
C1304       C  0.91708241  0.30299796  0.25397893    -0.12500
C1305       C  0.68152466  0.09548425  0.22440115    -0.10900
C1306       C  0.71227510  0.10552557  0.23449617    -0.12500
C1307       C  0.87843551  0.08332487  0.47665915    -0.10900
C1308       C  0.89932821  0.07471161  0.47219412    -0.12500
C1309       C  0.88593258  0.28628137  0.46268963    -0.10900
C1310       C  0.89938219  0.31961284  0.45153745    -0.12500
C1311       C  0.64197582  0.06920330  0.50430829    -0.10900
C1312       C  0.67651652  0.08239455  0.50263088    -0.12500
C1313       C  0.81165461  0.13650099  0.37964328    -0.14100
C1314       C  0.84147093  0.15463387  0.34296777    -0.29200
H1315       H  0.78121093  0.11714728  0.36946199     0.14900
H1316       H  0.87172954  0.17428449  0.35437513     0.15500
C1317       C  0.81963109  0.13922650  0.09299196    -0.14100
C1318       C  0.84884737  0.16007343  0.12818350    -0.29200
H1319       H  0.78938152  0.11728314  0.10645666     0.14900
H1320       H  0.87946899  0.18140509  0.11478138     0.15500
C1321       C  0.82165059  0.14948635  0.53511145     0.32400
C1322       C  0.81554414  0.12931497  0.93525024     0.32400
C1323       C  0.83390757  0.12666309  0.50856477    -0.03800
C1324       C  0.77920090  0.12591561  0.51528999    -0.04600
C1325       C  0.84526018  0.18861982  0.50465572    -0.04500
C1326       C  0.83416744  0.11440799  0.96040277    -0.03800
C1327       C  0.77560797  0.10695951  0.96525054    -0.04600
C1328       C  0.83872317  0.17175329  0.95635313    -0.04500
C1329       C  0.84547310  0.09182707  0.94795915    -0.29900
N1330       N  0.85406943  0.08263656  0.98612949     0.16600
C1331       C  0.85029368  0.10968354  0.51936101    -0.29900
H1332       H  0.85855976  0.10827051  0.55248596     0.18200
C1333       C  0.73568454  0.08450060  0.95607015    -0.28900
N1334       N  0.71669380  0.09782941  0.49843351     0.15300
C1335       C  0.74172057  0.11073871  0.53311956    -0.28900
C1336       C  0.85483022  0.20789239  0.93734929    -0.29100
N1337       N  0.87101136  0.24696164  0.47109586     0.15900
H1338       H  0.85628246  0.21379728  0.90149891     0.18500
C1339       C  0.86324823  0.22908770  0.51217379    -0.29200
H1340       H  0.86802614  0.24372036  0.54493643     0.18500
H1341       H  0.73373194  0.11052694  0.56877066     0.18500
H1342       H  0.84620689  0.08171168  0.91386032     0.18600
H1343       H  0.72368630  0.07672581  0.92257766     0.18500
C1344       C  0.84382949  0.15314657  0.68355403     0.32400
C1345       C  0.83917859  0.14666150  0.78343795     0.32400
C1346       C  0.86244964  0.13652026  0.70555836    -0.03800
C1347       C  0.86457076  0.19320648  0.71274222    -0.04600
C1348       C  0.80282085  0.12598291  0.70882207    -0.04500
C1349       C  0.86024556  0.13338756  0.75421986    -0.03800
C1350       C  0.86217207  0.18964831  0.76160654    -0.04600
C1351       C  0.79968574  0.12257818  0.75765486    -0.04500
C1352       C  0.87929314  0.11852742  0.76379020    -0.29900
N1353       N  0.89258875  0.11248834  0.72404225     0.16600
C1354       C  0.88260650  0.12328555  0.68873032    -0.29900
H1355       H  0.88948450  0.12149877  0.65320458     0.18600
C1356       C  0.88543767  0.22876635  0.77907576    -0.28900
N1357       N  0.90175828  0.25571336  0.74419502     0.15300
C1358       C  0.88941930  0.23471946  0.70398004    -0.28900
C1359       C  0.75938540  0.09858713  0.76924489    -0.29100
N1360       N  0.73968863  0.08798872  0.73022147     0.15900
H1361       H  0.74540223  0.09031560  0.80316776     0.18500
C1362       C  0.76549558  0.10425925  0.69378389    -0.29200
H1363       H  0.75751655  0.10142795  0.65886547     0.18500
H1364       H  0.89850390  0.24867364  0.67064304     0.18500
H1365       H  0.88297040  0.11232122  0.79735766     0.18600
H1366       H  0.89072711  0.23706816  0.81471720     0.18500
O1367       O  0.57359921  0.48243671  0.84843511    -0.72900
O1368       O  0.56107737  0.44947718  0.91347607    -0.51800
C1369       C  0.57577330  0.45987280  0.87330953     0.80800
O1370       O  0.55624972  0.11931475  0.95537508    -0.57500
O1371       O  0.50878875  0.10524008  0.90963088    -0.50600
C1372       C  0.54136874  0.12997033  0.93025684     0.72800
O1373       O  0.59434241  0.05265154  0.99270829    -0.72100
O1374       O  0.56461644  0.98613688  0.99941510    -0.52700
C1375       C  0.59601378  0.02436659  0.99752326     0.78800
O1376       O  0.53555135  0.56005145  0.82213335    -0.57200
O1377       O  0.00350819  0.08740691  0.84080960    -0.50400
C1378       C  0.02700014  0.08167911  0.82557460     0.75400
Zr1379     Zr  0.55726941  0.52918059  0.86343009     2.54700
O1380       O  0.60189013  0.04259659  0.87690852    -0.77800
O1381       O  0.02059923  0.45750943  0.79947211    -0.91200
Zr1382     Zr  0.54290381  0.05806385  0.98506543     2.64700
O1383       O  0.61047884  0.12037724  0.96372562    -0.96200
O1384       O  0.56704923  0.10485642  0.04868150    -0.78200
O1385       O  0.53756977  0.00854197  0.94491743    -0.81600
O1386       O  0.52881365  0.04770782  0.90978771    -2.16300
O1387       O  0.87236162  0.42926970  0.86178359    -0.65000
O1388       O  0.90098068  0.49602706  0.87203150    -0.49500
C1389       C  0.87157338  0.45869349  0.86201443     0.73800
O1390       O  0.91835538  0.95660526  0.50680098    -0.57900
O1391       O  0.44204693  0.43096612  0.52479632    -0.49900
C1392       C  0.89413391  0.38956413  0.51596241     0.75600
O1393       O  0.89835055  0.00340929  0.99989114    -0.69300
O1394       O  0.93196520  0.05198955  0.94522215    -0.48000
C1395       C  0.90491186  0.03212260  0.97687211     0.77000
O1396       O  0.90207374  0.36010551  0.92280542    -0.64600
O1397       O  0.95954038  0.37299371  0.93588757    -0.51800
C1398       C  0.92174543  0.34898115  0.93265022     0.75400
Zr1399     Zr  0.91782401  0.41930537  0.88653672     2.77500
O1400       O  0.85491783  0.36608043  0.92726753    -0.95400
O1401       O  0.90308320  0.37556309  0.82187271    -0.76200
Zr1402     Zr  0.93950910  0.98371734  0.00824897     2.70100
O1403       O  0.85738412  0.43286535  0.55152783    -0.77400
O1404       O  0.43164478  0.02151451  0.57704161    -0.96500
Zr1405     Zr  0.51645640  0.45596175  0.94832565     2.21500
Zr1406     Zr  0.96964450  0.03759284  0.90229370     2.11100
O1407       O  0.91200804  0.46178653  0.93344264    -2.45200
O1408       O  0.96404630  0.46239766  0.93990624    -0.77200
O1409       O  0.96863428  0.48548778  0.85404454    -0.69400
O1410       O  0.48947824  0.99190867  0.02277725    -2.30400
O1411       O  0.98251428  0.43733791  0.88072156    -2.26600
O1412       O  0.48098060  0.04340662  0.97697527    -0.71200
H1413       H  0.55315464  0.07404502  0.90121057     0.80800
H1414       H  0.48996796  0.01820772  0.55815381     0.81900
H1415       H  0.88539936  0.45250555  0.93823940     0.84100
H1416       H  0.98103303  0.41585854  0.86634936     0.81700
H1417       H  0.57915853  0.13165584  0.03559319     0.44800
H1418       H  0.44776285  0.05007853  0.56735220     0.43700
H1419       H  0.84641193  0.44666228  0.55910242     0.43400
H1420       H  0.84179718  0.37785105  0.93355524     0.41400
H1421       H  0.87596938  0.34963988  0.82917330     0.44500
H1422       H  0.99120910  0.43845275  0.79993434     0.39300
H1423       H  0.61029160  0.06847155  0.88988394     0.45400
H1424       H  0.62679693  0.12910954  0.99053343     0.41800
H1425       H  0.83831148  0.34491764  0.90399496     0.46700
H1426       H  0.63443286  0.55078740  0.87638384     0.45400
H1427       H  0.62223256  0.11306649  0.94066812     0.45600
H1428       H  0.00590310  0.11428646  0.54271224     0.45900
O1429       O  0.50875643  0.38853193  0.62174439    -0.72900
O1430       O  0.54264754  0.41411724  0.68647516    -0.51800
C1431       C  0.53142001  0.39225542  0.65059653     0.80800
O1432       O  0.57709892  0.09792564  0.62030929    -0.57500
O1433       O  0.51520965  0.07599566  0.60872399    -0.50600
C1434       C  0.55325070  0.10474396  0.61298599     0.72800
O1435       O  0.62361724  0.05181342  0.67565384    -0.72100
O1436       O  0.59894646  0.99451267  0.71488228    -0.52700
C1437       C  0.62732706  0.03072394  0.70061734     0.78800
O1438       O  0.40888429  0.37857785  0.61311677    -0.57200
O1439       O  0.90249587  0.93608237  0.59971698    -0.50400
C1440       C  0.88905706  0.90005342  0.60872052     0.75400
Zr1441     Zr  0.47951094  0.41992251  0.61171207     2.54700
O1442       O  0.51769222  0.93450857  0.53924348    -0.77800
O1443       O  0.95164828  0.37933790  0.60103879    -0.91200
Zr1444     Zr  0.56989780  0.03697568  0.63163705     2.64700
O1445       O  0.60210502  0.01820925  0.58095968    -0.96200
O1446       O  0.62789673  0.09851590  0.59349805    -0.78200
O1447       O  0.54456670  0.96947430  0.64527857    -0.81600
O1448       O  0.51031663  0.99061046  0.59160569    -2.16300
O1449       O  0.87585792  0.42461724  0.69291274    -0.65000
O1450       O  0.89749822  0.47625602  0.64506427    -0.49500
C1451       C  0.86986196  0.44426492  0.66836886     0.73800
O1452       O  0.04408431  0.02741776  0.78069106    -0.57900
O1453       O  0.57802975  0.50287854  0.77005552    -0.49900
C1454       C  0.08234176  0.54389488  0.78537941     0.75600
O1455       O  0.96672492  0.06396771  0.73714804    -0.69300
O1456       O  0.93752593  0.04148580  0.66897780    -0.48000
C1457       C  0.94534785  0.06130395  0.70653320     0.77000
O1458       O  0.93623863  0.38143964  0.74478695    -0.64600
O1459       O  0.00059623  0.40656851  0.74002437    -0.51800
C1460       C  0.96247360  0.37717022  0.74733802     0.75400
Zr1461     Zr  0.93421361  0.43213521  0.71393521     2.77500
O1462       O  0.90299414  0.42817552  0.78549554    -0.95400
O1463       O  0.88442274  0.36264417  0.68647397    -0.76200
Zr1464     Zr  0.00189037  0.03706878  0.74383081     2.70100
O1465       O  0.95229961  0.52057290  0.80309254    -0.77400
O1466       O  0.56470522  0.10687968  0.73908579    -0.96500
Zr1467     Zr  0.52698891  0.45432151  0.71950783     2.21500
Zr1468     Zr  0.95404747  0.00019713  0.63732767     2.11100
O1469       O  0.95075325  0.49636726  0.70677944    -2.45200
O1470       O  0.99008802  0.48056041  0.75770647    -0.77200
O1471       O  0.98632362  0.48186268  0.66269061    -0.69400
O1472       O  0.55361035  0.02558856  0.70806325    -2.30400
O1473       O  0.98423820  0.43129785  0.67830438    -2.26600
O1474       O  0.52331641  0.04032601  0.66546883    -0.71200
H1475       H  0.51888021  0.99410775  0.56018879     0.80800
H1476       H  0.57876888  0.05006634  0.71761669     0.81900
H1477       H  0.92938992  0.49567103  0.71854104     0.84100
H1478       H  0.97651319  0.40492004  0.67364071     0.81700
H1479       H  0.65121271  0.10318502  0.60507281     0.44800
H1480       H  0.58569408  0.11026855  0.71917487     0.43700
H1481       H  0.93141688  0.51886751  0.78909057     0.43400
H1482       H  0.89911439  0.44799930  0.78117278     0.41400
H1483       H  0.86394196  0.34832961  0.71179495     0.44500
H1484       H  0.96547262  0.36906587  0.60817678     0.39300
H1485       H  0.52369205  0.91597191  0.53986556     0.45400
H1486       H  0.62488970  0.02532357  0.59721988     0.41800
H1487       H  0.87562918  0.40171256  0.78322630     0.46700
H1488       H  0.44943416  0.35520370  0.54827315     0.45400
H1489       H  0.58421159  0.98831340  0.57738196     0.45600
H1490       H  0.03815331  0.11801395  0.71262449     0.45900
C1491       C  0.65302137  0.34489906  0.83262398     0.32400
C1492       C  0.65615553  0.35815277  0.93200039     0.32400
C1493       C  0.63665758  0.36510729  0.85405356    -0.03800
C1494       C  0.63047945  0.30690455  0.86481801    -0.04600
C1495       C  0.69398070  0.37212855  0.85460388    -0.04500
C1496       C  0.63801583  0.37206991  0.90227684    -0.03800
C1497       C  0.63214074  0.31399665  0.91343642    -0.04600
C1498       C  0.69625800  0.37887313  0.90301744    -0.04500
C1499       C  0.62588489  0.39493794  0.90912160    -0.29900
N1500       N  0.61772599  0.40142267  0.86819447     0.16600
C1501       C  0.62403554  0.38337448  0.83486179    -0.29900
H1502       H  0.62107389  0.38475788  0.79889133     0.18600
C1503       C  0.61311445  0.27736634  0.93432792    -0.28900
N1504       N  0.60016755  0.24852443  0.90190746     0.15300
C1505       C  0.61033633  0.26565370  0.85975087    -0.28900
C1506       C  0.73657933  0.40370397  0.91108419    -0.29100
N1507       N  0.75746464  0.41176710  0.87056840     0.15900
H1508       H  0.74966328  0.41442762  0.94400037     0.18500
C1509       C  0.73198785  0.39282007  0.83646920    -0.29200
H1510       H  0.74051998  0.39326266  0.80097686     0.18500
H1511       H  0.60447749  0.24950270  0.82788430     0.18500
H1512       H  0.62449558  0.40723983  0.94131300     0.18600
H1513       H  0.60994630  0.27219335  0.97065308     0.18500
C1514       C  0.65872291  0.33525740  0.58333839     0.32400
C1515       C  0.64801421  0.32480005  0.68241826     0.32400
C1516       C  0.63496597  0.34574266  0.61046881    -0.03800
C1517       C  0.63587853  0.29131943  0.60305539    -0.04600
C1518       C  0.69683409  0.35913928  0.61270890    -0.04500
C1519       C  0.63001054  0.34084194  0.65915210    -0.03800
C1520       C  0.63075507  0.28632153  0.65158874    -0.04600
C1521       C  0.69078115  0.35383117  0.66123922    -0.04500
C1522       C  0.60256734  0.34496544  0.67364398    -0.29900
N1523       N  0.59066942  0.35155774  0.63670224     0.16600
C1524       C  0.60939676  0.35166524  0.59837514    -0.29900
H1525       H  0.60320120  0.35412168  0.56439245     0.18600
C1526       C  0.61113684  0.24555981  0.65964926    -0.28900
N1527       N  0.60415147  0.22568799  0.61923664     0.15300
C1528       C  0.61901007  0.25308602  0.58478173    -0.28900
C1529       C  0.72712869  0.37391689  0.67927791    -0.29100
N1530       N  0.75535675  0.39111824  0.64498888     0.15900
H1531       H  0.73253074  0.37436461  0.71478975     0.18500
C1532       C  0.73778407  0.38239391  0.60439765    -0.29200
H1533       H  0.75335195  0.39087130  0.57128129     0.18500
H1534       H  0.61816357  0.24592538  0.54890338     0.18500
H1535       H  0.59103425  0.34205008  0.70828125     0.18600
H1536       H  0.60300744  0.23143833  0.69276855     0.18500
C1537       C  0.65631532  0.34656126  0.77555402    -0.14100
C1538       C  0.64179450  0.31796038  0.73885674    -0.29200
H1539       H  0.67417385  0.37764617  0.76354071     0.14900
H1540       H  0.62419510  0.28655347  0.74934976     0.15500
C1541       C  0.65499171  0.36484295  0.98934153    -0.14100
C1542       C  0.66445669  0.33995700  0.52628652    -0.29200
H1543       H  0.64241646  0.37917973  0.99908905     0.14900
H1544       H  0.67384469  0.32397252  0.51038907     0.15500
C1545       C  0.57043484  0.14764974  0.61215222    -0.10900
C1546       C  0.58581887  0.18372378  0.61446630    -0.12500
C1547       C  0.82933537  0.42678319  0.66129486    -0.10900
C1548       C  0.79561501  0.41106014  0.65211791    -0.12500
C1549       C  0.56510307  0.36016234  0.63835081    -0.10900
C1550       C  0.54653046  0.37166555  0.64192696    -0.12500
C1551       C  0.58071494  0.20764417  0.91182900    -0.10900
C1552       C  0.56359097  0.17268893  0.92200457    -0.12500
C1553       C  0.79847280  0.43240386  0.86410458    -0.10900
C1554       C  0.83298734  0.44720991  0.85858016    -0.12500
C1555       C  0.59469315  0.44356607  0.85768863    -0.10900
C1556       C  0.60625696  0.42466473  0.86048704    -0.12500
C1557       C  0.06872220  0.11539050  0.81591467    -0.16100
C1558       C  0.10216284  0.13052067  0.80286625     0.07900
C1559       C  0.12471185  0.61995970  0.80214381     0.09800
C1560       C  0.11378855  0.58710111  0.79124528    -0.17000
C1561       C  0.86006863  0.34779310  0.52626006    -0.16100
C1562       C  0.83552377  0.33033342  0.55719468     0.07900
C1563       C  0.83178083  0.84585267  0.56542991     0.09800
C1564       C  0.84863791  0.86559801  0.59865781    -0.17000
C1565       C  0.92828682  0.08120819  0.71475370    -0.10900
C1566       C  0.91225098  0.09614999  0.71967881    -0.12500
C1567       C  0.94649250  0.33540963  0.75212525    -0.10900
C1568       C  0.92692130  0.29863577  0.74930030    -0.12500
C1569       C  0.66587185  0.04950784  0.71553268    -0.10900
C1570       C  0.69919335  0.06640191  0.72592468    -0.12500
C1571       C  0.86706692  0.06032939  0.98718062    -0.10900
C1572       C  0.88116388  0.04384437  0.98607894    -0.12500
C1573       C  0.88466201  0.27520673  0.96179148    -0.10900
C1574       C  0.90022499  0.30847114  0.94786858    -0.12500
C1575       C  0.63629151  0.03764078  0.00028221    -0.10900
C1576       C  0.67179345  0.05389459  0.99933105    -0.12500
C1577       C  0.81184926  0.12606825  0.87822990    -0.14100
C1578       C  0.84095744  0.14615635  0.84050822    -0.29200
H1579       H  0.78127271  0.10597797  0.86817066     0.14900
H1580       H  0.87146259  0.16624830  0.85114630     0.15500
C1581       C  0.82480773  0.15607460  0.59216322    -0.14100
C1582       C  0.84400454  0.15142342  0.62609218    -0.29200
H1583       H  0.80867858  0.16577290  0.60614195     0.14900
H1584       H  0.86105933  0.14308964  0.61179251     0.15500
C1585       C  0.83353490  0.64605397  0.03852864     0.32400
C1586       C  0.83055209  0.65775607  0.44180007     0.32400
C1587       C  0.84871258  0.62430544  0.01182546    -0.03800
C1588       C  0.79032023  0.61743143  0.01796419    -0.04600
C1589       C  0.85334963  0.68364587  0.00366335    -0.04500
C1590       C  0.84968749  0.64309665  0.46538320    -0.03800
C1591       C  0.79088416  0.63489117  0.47202102    -0.04600
C1592       C  0.85412591  0.70070898  0.46254463    -0.04500
C1593       C  0.85459995  0.61568569  0.45179008    -0.29900
N1594       N  0.85937329  0.60237824  0.48918181     0.16600
C1595       C  0.85767588  0.60147382  0.02745446    -0.29900
H1596       H  0.86088447  0.59809030  0.06267252     0.18200
C1597       C  0.75057845  0.60953215  0.46375402    -0.28900
N1598       N  0.72604038  0.57839019  0.00112905     0.15300
C1599       C  0.75158564  0.59673287  0.03581165    -0.28900
C1600       C  0.87275515  0.73823159  0.44408146    -0.29100
N1601       N  0.87740867  0.73991520  0.96642837     0.15900
H1602       H  0.87521276  0.74487233  0.40830422     0.18500
C1603       C  0.87107724  0.72421594  0.00849995    -0.29200
H1604       H  0.87774909  0.74074207  0.04023952     0.18500
H1605       H  0.74284536  0.59623975  0.07121100     0.18500
H1606       H  0.85224476  0.60417791  0.41757404     0.18600
H1607       H  0.73779943  0.60039387  0.43063998     0.18500
C1608       C  0.85672438  0.66992285  0.19274857     0.32400
C1609       C  0.85161383  0.66645238  0.29242337     0.32400
C1610       C  0.87639662  0.65564920  0.21676429    -0.03800
C1611       C  0.87592929  0.71059516  0.22077806    -0.04600
C1612       C  0.81535456  0.64210087  0.21749888    -0.04500
C1613       C  0.87388850  0.65404216  0.26554230    -0.03800
C1614       C  0.87297869  0.70790987  0.26953475    -0.04600
C1615       C  0.81231999  0.64044078  0.26659737    -0.04500
C1616       C  0.89577299  0.64345424  0.27786876    -0.29900
N1617       N  0.91106547  0.63853581  0.23948730     0.16600
C1618       C  0.89967087  0.64576544  0.20231015    -0.29900
H1619       H  0.90799154  0.64423892  0.16734123     0.18600
C1620       C  0.89318022  0.74630007  0.28709432    -0.28900
N1621       N  0.90846384  0.77280605  0.25236685     0.15300
C1622       C  0.89845140  0.75198450  0.21192142    -0.28900
C1623       C  0.77277474  0.61957238  0.27868056    -0.29100
N1624       N  0.75305189  0.60864847  0.23984783     0.15900
H1625       H  0.75952024  0.61483231  0.31265032     0.18500
C1626       C  0.77818788  0.62215305  0.20289411    -0.29200
H1627       H  0.77016265  0.61998156  0.16816487     0.18500
H1628       H  0.90716538  0.76588819  0.17859689     0.18500
H1629       H  0.90044676  0.63979196  0.31224992     0.18600
H1630       H  0.89682490  0.75452460  0.32283655     0.18500
O1631       O  0.56981937  0.98728288  0.38710774    -0.72900
O1632       O  0.54538072  0.95546415  0.45550504    -0.51800
C1633       C  0.56721156  0.96547293  0.41860499     0.80800
O1634       O  0.59157511  0.65340476  0.44845871    -0.57500
O1635       O  0.53417327  0.63784566  0.42784342    -0.50600
C1636       C  0.57192934  0.66176823  0.43014457     0.72800
O1637       O  0.61524630  0.57630272  0.49254741    -0.72100
O1638       O  0.57967777  0.51279833  0.52187724    -0.52700
C1639       C  0.61316841  0.54736657  0.50823660     0.78800
O1640       O  0.51864241  0.05171114  0.33780089    -0.57200
O1641       O  0.01380565  0.60237434  0.35868602    -0.50400
C1642       C  0.03809629  0.59668061  0.34758105     0.75400
Zr1643     Zr  0.53483668  0.01435689  0.37661662     2.54700
O1644       O  0.61965925  0.56761975  0.39371410    -0.77800
O1645       O  0.02626738  0.97414966  0.32275545    -0.91200
Zr1646     Zr  0.57245508  0.59511288  0.49162138     2.64700
O1647       O  0.64439597  0.64954754  0.49696055    -0.96200
O1648       O  0.58730641  0.63842580  0.55663353    -0.78200
O1649       O  0.56328097  0.53893343  0.45819008    -0.81600
O1650       O  0.55283215  0.57905774  0.41810569    -2.16300
O1651       O  0.89374272  0.96269474  0.37564342    -0.65000
O1652       O  0.92105918  0.02910553  0.37894046    -0.49500
C1653       C  0.89112880  0.99066018  0.37396952     0.73800
O1654       O  0.93744187  0.42361872  0.05436969    -0.57900
O1655       O  0.43329918  0.89599654  0.02057572    -0.49900
C1656       C  0.95379824  0.92174071  0.04056881     0.75600
O1657       O  0.88902806  0.51191526  0.50101722    -0.69300
O1658       O  0.92366712  0.55789797  0.44380272    -0.48000
C1659       C  0.89708087  0.54029103  0.47617960     0.77000
O1660       O  0.92817853  0.89473938  0.42997983    -0.64600
O1661       O  0.97513001  0.91218741  0.47903895    -0.51800
C1662       C  0.94425032  0.88576929  0.45568949     0.75400
Zr1663     Zr  0.94010879  0.95677746  0.40702692     2.77500
O1664       O  0.87004256  0.90408817  0.43133825    -0.95400
O1665       O  0.93201548  0.92841564  0.33224881    -0.76200
Zr1666     Zr  0.92200862  0.48432821  0.51251434     2.70100
O1667       O  0.87841340  0.91895045  0.03686795    -0.77400
O1668       O  0.40556522  0.45490540  0.07674903    -0.96500
Zr1669     Zr  0.49999902  0.96724377  0.48669200     2.21500
Zr1670     Zr  0.96441736  0.54433467  0.40881573     2.11100
O1671       O  0.94091345  0.00762231  0.44392447    -2.45200
O1672       O  0.98946414  0.00873860  0.45672129    -0.77200
O1673       O  0.99023225  0.01485163  0.36273822    -0.69400
O1674       O  0.52036338  0.53830566  0.53632656    -2.30400
O1675       O  0.00101946  0.96990518  0.41438462    -2.26600
O1676       O  0.51234258  0.58500868  0.48605977    -0.71200
H1677       H  0.57887524  0.60228886  0.40660850     0.80800
H1678       H  0.50502618  0.48500480  0.01865161     0.81900
H1679       H  0.91411480  0.99771823  0.44839824     0.84100
H1680       H  0.99988109  0.94775896  0.40344844     0.81700
H1681       H  0.58885118  0.66049467  0.54433689     0.44800
H1682       H  0.37943883  0.44626459  0.06925297     0.43700
H1683       H  0.85845475  0.92277880  0.03930535     0.43400
H1684       H  0.86002388  0.91803466  0.44327517     0.41400
H1685       H  0.91051732  0.89879278  0.33725940     0.44500
H1686       H  0.99734834  0.95627090  0.32893936     0.39300
H1687       H  0.62861715  0.59369767  0.40711148     0.45400
H1688       H  0.65577280  0.65204584  0.46580635     0.41800
H1689       H  0.85567884  0.89009048  0.40316902     0.46700
H1690       H  0.52333941  0.94740636  0.32899948     0.45400
H1691       H  0.64890581  0.67515703  0.50146838     0.45600
H1692       H  0.89824655  0.48078413  0.07677527     0.45900
O1693       O  0.53331123  0.92845341  0.12669383    -0.72900
O1694       O  0.56632837  0.95395307  0.19205669    -0.51800
C1695       C  0.55483713  0.93153075  0.15667665     0.80800
O1696       O  0.58929371  0.63751647  0.13773114    -0.57500
O1697       O  0.52632550  0.61393105  0.12840558    -0.50600
C1698       C  0.56444998  0.64240008  0.12830704     0.72800
O1699       O  0.64170683  0.58832423  0.19741973    -0.72100
O1700       O  0.61366729  0.52779302  0.23170211    -0.52700
C1701       C  0.64324331  0.56382203  0.21825333     0.78800
O1702       O  0.44474639  0.92439814  0.11206553    -0.57200
O1703       O  0.00755810  0.55410054  0.07576743    -0.50400
C1704       C  0.01018219  0.52689982  0.07154086     0.75400
Zr1705     Zr  0.51625478  0.96992481  0.10920819     2.54700
O1706       O  0.58034389  0.50584143  0.13720337    -0.77800
O1707       O  0.95281653  0.89573450  0.12293920    -0.91200
Zr1708     Zr  0.59054501  0.58545613  0.16515603     2.64700
O1709       O  0.62576406  0.59812556  0.09164469    -0.96200
O1710       O  0.64676251  0.64751201  0.20166509    -0.78200
O1711       O  0.56725218  0.51731153  0.16737400    -0.81600
O1712       O  0.52320400  0.52815080  0.17028283    -2.16300
O1713       O  0.88793251  0.94322759  0.18691859    -0.65000
O1714       O  0.91424385  0.99601841  0.13868541    -0.49500
C1715       C  0.88496633  0.96276726  0.15841169     0.73800
O1716       O  0.04778421  0.53511658  0.29725610    -0.57900
O1717       O  0.58729897  0.02230305  0.29093172    -0.49900
C1718       C  0.09389069  0.05719608  0.30275680     0.75600
O1719       O  0.98480761  0.59096698  0.25877485    -0.69300
O1720       O  0.95942942  0.57448603  0.18841173    -0.48000
C1721       C  0.96623071  0.59176811  0.22736800     0.77000
O1722       O  0.93879215  0.89784286  0.25723014    -0.64600
O1723       O  0.00233530  0.92121207  0.26359585    -0.51800
C1724       C  0.96375220  0.89262149  0.26553544     0.75400
Zr1725     Zr  0.94005478  0.95093804  0.22492316     2.77500
O1726       O  0.89691506  0.94479627  0.28695922    -0.95400
O1727       O  0.88199368  0.88085622  0.20767974    -0.76200
Zr1728     Zr  0.01476964  0.55908388  0.26457683     2.70100
O1729       O  0.97073455  0.04717938  0.31595274    -0.77400
O1730       O  0.56948602  0.64071252  0.25899053    -0.96500
Zr1731     Zr  0.54664400  0.99029996  0.22532062     2.21500
Zr1732     Zr  0.97610700  0.53577737  0.15142037     2.11100
O1733       O  0.96431415  0.01889508  0.22247231    -2.45200
O1734       O  0.99828436  0.99819988  0.26886201    -0.77200
O1735       O  0.95876039  0.97181124  0.14670875    -0.69400
O1736       O  0.56845440  0.56212393  0.23632078    -2.30400
O1737       O  0.99034493  0.94794936  0.19994377    -2.26600
O1738       O  0.54087892  0.58991900  0.19276758    -0.71200
H1739       H  0.53695869  0.54331417  0.14354775     0.80800
H1740       H  0.59403393  0.58662731  0.24522641     0.81900
H1741       H  0.94247864  0.01788071  0.23302874     0.84100
H1742       H  0.98249060  0.92174256  0.19372817     0.81700
H1743       H  0.66587739  0.66473160  0.17613207     0.44800
H1744       H  0.59299147  0.64748318  0.24129076     0.43700
H1745       H  0.94971217  0.01792213  0.30955445     0.43400
H1746       H  0.88629923  0.95726067  0.27547098     0.41400
H1747       H  0.86743068  0.86821524  0.23723703     0.44500
H1748       H  0.93065398  0.89099351  0.14170311     0.39300
H1749       H  0.58979271  0.49333416  0.11824563     0.45400
H1750       H  0.64474775  0.62815290  0.08862909     0.41800
H1751       H  0.87340794  0.91542491  0.28901287     0.46700
H1752       H  0.52351930  0.92409565  0.04284889     0.45400
H1753       H  0.64289113  0.59126067  0.09652165     0.45600
H1754       H  0.05742279  0.64499249  0.24762101     0.45900
C1755       C  0.66969643  0.87454538  0.34588256     0.32400
C1756       C  0.66800091  0.87033051  0.44595361     0.32400
C1757       C  0.65173608  0.89109040  0.37571609    -0.03800
C1758       C  0.64667419  0.83237326  0.36865863    -0.04600
C1759       C  0.70975815  0.89790768  0.36935822    -0.04500
C1760       C  0.65076889  0.88906749  0.42459259    -0.03800
C1761       C  0.64508176  0.83081512  0.41766576    -0.04600
C1762       C  0.70981799  0.89623297  0.41803701    -0.04500
C1763       C  0.63377296  0.90595709  0.44135373    -0.29900
N1764       N  0.62465929  0.91788876  0.40595301     0.16600
C1765       C  0.63553128  0.90902838  0.36625263    -0.29900
H1766       H  0.63180294  0.91504419  0.33259722     0.18600
C1767       C  0.62504572  0.79158925  0.42912600    -0.28900
N1768       N  0.61750556  0.77013109  0.39094520     0.15300
C1769       C  0.63007040  0.79368426  0.35366260    -0.28900
C1770       C  0.75012322  0.91953438  0.42718510    -0.29100
N1771       N  0.77297579  0.93453288  0.38720700     0.15900
H1772       H  0.76183512  0.92481403  0.46048906     0.18500
C1773       C  0.74861159  0.92133934  0.35232890    -0.29200
H1774       H  0.75846490  0.92791520  0.31671937     0.18500
H1775       H  0.62914298  0.78368957  0.31910191     0.18500
H1776       H  0.62838500  0.90921806  0.47697681     0.18600
H1777       H  0.61731954  0.77858782  0.46245298     0.18500
C1778       C  0.67597471  0.86824150  0.09482380     0.32400
C1779       C  0.66830825  0.86132628  0.19409361     0.32400
C1780       C  0.65329963  0.87971577  0.12167457    -0.03800
C1781       C  0.65450192  0.82607297  0.11547444    -0.04600
C1782       C  0.71452408  0.89353018  0.12225109    -0.04500
C1783       C  0.64927909  0.87623632  0.17051423    -0.03800
C1784       C  0.65041884  0.82221923  0.16413887    -0.04600
C1785       C  0.71084921  0.89012237  0.17104695    -0.04500
C1786       C  0.62331878  0.88245269  0.18458746    -0.29900
N1787       N  0.61196214  0.88915898  0.14711062     0.16600
C1788       C  0.62978969  0.88778590  0.10892553    -0.29900
H1789       H  0.62494178  0.89117695  0.07449871     0.18600
C1790       C  0.62847910  0.78122582  0.17246249    -0.28900
N1791       N  0.61964602  0.76132529  0.13186300     0.15300
C1792       C  0.63530660  0.78808161  0.09721636    -0.28900
C1793       C  0.74808644  0.90751344  0.18515096    -0.29100
N1794       N  0.77349396  0.92120606  0.14794169     0.15900
H1795       H  0.75547456  0.90728863  0.21947881     0.18500
C1796       C  0.75373467  0.91281215  0.10982411    -0.29200
H1797       H  0.76637016  0.91740669  0.07545957     0.18500
H1798       H  0.63247291  0.78028845  0.06138044     0.18500
H1799       H  0.61254829  0.88110796  0.21922491     0.18600
H1800       H  0.61919490  0.76675095  0.20550612     0.18500
C1801       C  0.67418950  0.88096370  0.28918864    -0.14100
C1802       C  0.66223650  0.85428471  0.25059705    -0.29200
H1803       H  0.69071002  0.91251489  0.27993117     0.14900
H1804       H  0.64614937  0.82292900  0.25950501     0.15500
C1805       C  0.66629108  0.86702709  0.50393408    -0.14100
C1806       C  0.68308419  0.87447448  0.03882748    -0.29200
H1807       H  0.67696380  0.89529608  0.52043300     0.14900
H1808       H  0.71432280  0.89691209  0.02792700     0.15500
C1809       C  0.58087516  0.68359054  0.12268652    -0.10900
C1810       C  0.59806151  0.71944485  0.12606738    -0.12500
C1811       C  0.84569570  0.94729437  0.15010092    -0.10900
C1812       C  0.81245516  0.93546283  0.14814502    -0.12500
C1813       C  0.58686825  0.89812594  0.14777422    -0.10900
C1814       C  0.56857638  0.90978898  0.14983057    -0.12500
C1815       C  0.60488191  0.73138273  0.39394404    -0.10900
C1816       C  0.59287913  0.69968535  0.40858681    -0.12500
C1817       C  0.81494320  0.95805648  0.38089620    -0.10900
C1818       C  0.85058065  0.97620458  0.37417208    -0.12500
C1819       C  0.58947646  0.95039946  0.41256297    -0.10900
C1820       C  0.60611603  0.93575036  0.40949019    -0.12500
C1821       C  0.08062801  0.62916315  0.34835897    -0.16100
C1822       C  0.11362775  0.64041453  0.34229193     0.07900
C1823       C  0.14518980  0.13466554  0.31154708     0.09800
C1824       C  0.12915156  0.09939703  0.30655738    -0.17000
C1825       C  0.99374057  0.93842769  0.04986368    -0.16100
C1826       C  0.02900032  0.96717478  0.04990747     0.07900
C1827       C  0.05200100  0.50906958  0.05754855     0.09800
C1828       C  0.04592630  0.53265524  0.06161930    -0.17000
C1829       C  0.95049591  0.61221981  0.23600980    -0.10900
C1830       C  0.93336730  0.62563431  0.23841250    -0.12500
C1831       C  0.94718113  0.85066628  0.26671543    -0.10900
C1832       C  0.93017517  0.81492789  0.25932662    -0.12500
C1833       C  0.68111398  0.57829792  0.22901025    -0.10900
C1834       C  0.71375410  0.59154018  0.23678357    -0.12500
C1835       C  0.86603434  0.57485061  0.48859777    -0.10900
C1836       C  0.87617144  0.55485592  0.48547662    -0.12500
C1837       C  0.90714256  0.80756009  0.47084151    -0.10900
C1838       C  0.92429084  0.84304477  0.46245360    -0.12500
C1839       C  0.65143638  0.55699236  0.51112025    -0.10900
C1840       C  0.68698916  0.57423885  0.50899892    -0.12500
C1841       C  0.82560798  0.65220241  0.38593361    -0.14100
C1842       C  0.85437961  0.66904174  0.34873004    -0.29200
H1843       H  0.79497905  0.63269261  0.37627450     0.14900
H1844       H  0.88494923  0.68871671  0.35914665     0.15500
C1845       C  0.83214603  0.64961972  0.10010150    -0.14100
C1846       C  0.86063230  0.67083902  0.13550277    -0.29200
H1847       H  0.84221733  0.65438686  0.06909730     0.14900
H1848       H  0.89157085  0.69102547  0.12284010     0.15500
C1849       C  0.83560369  0.66552792  0.54043719     0.32400
C1850       C  0.82510094  0.63176163  0.93785635     0.32400
C1851       C  0.85191593  0.64646288  0.51422996    -0.03800
C1852       C  0.79344026  0.63875717  0.52033845    -0.04600
C1853       C  0.85687185  0.70529954  0.51101373    -0.04500
C1854       C  0.84476282  0.61781209  0.96329509    -0.03800
C1855       C  0.78695101  0.61091698  0.96962670    -0.04600
C1856       C  0.84900075  0.67552884  0.95571634    -0.04500
C1857       C  0.85139176  0.59082751  0.95298357    -0.29900
N1858       N  0.85939332  0.58159802  0.99180021     0.16600
C1859       C  0.85716464  0.61984974  0.52701878    -0.29900
H1860       H  0.85649026  0.61110065  0.56112533     0.18200
C1861       C  0.74709516  0.58675193  0.96126390    -0.28900
N1862       N  0.72899709  0.59798740  0.50414149     0.15300
C1863       C  0.75464076  0.61571161  0.53862615    -0.28900
C1864       C  0.86394334  0.71078071  0.93451631    -0.29100
N1865       N  0.88689429  0.76587591  0.47816578     0.15900
H1866       H  0.86349538  0.71462832  0.89860984     0.18500
C1867       C  0.87749655  0.74661861  0.51891390    -0.29200
H1868       H  0.88456297  0.76141010  0.55187776     0.18500
H1869       H  0.74575014  0.61240499  0.57445916     0.18500
H1870       H  0.84874941  0.57739078  0.91993236     0.18600
H1871       H  0.73412899  0.57695702  0.92826145     0.18500
C1872       C  0.84587666  0.65539271  0.68715276     0.32400
C1873       C  0.83703090  0.64251385  0.78573901     0.32400
C1874       C  0.86270181  0.63660144  0.70750896    -0.03800
C1875       C  0.86538764  0.69307880  0.71915949    -0.04600
C1876       C  0.80345332  0.62699586  0.70935219    -0.04500
C1877       C  0.85851406  0.63038251  0.75558680    -0.03800
C1878       C  0.86082771  0.68625752  0.76726589    -0.04600
C1879       C  0.79765288  0.62025236  0.75789701    -0.04500
C1880       C  0.87889224  0.61688877  0.76428180    -0.29900
N1881       N  0.89456381  0.61442700  0.72425878     0.16600
C1882       C  0.88506402  0.62630249  0.68979125    -0.29900
H1883       H  0.89450292  0.62799745  0.65442477     0.18600
C1884       C  0.88307016  0.72366851  0.78810159    -0.28900
N1885       N  0.90056848  0.75258322  0.75571329     0.15300
C1886       C  0.89036182  0.73481516  0.71377053    -0.28900
C1887       C  0.75624998  0.59675510  0.76576766    -0.29100
N1888       N  0.73886110  0.58979896  0.72511127     0.15900
H1889       H  0.74028045  0.58649129  0.79864311     0.18500
C1890       C  0.76740571  0.60795511  0.69135294    -0.29200
H1891       H  0.76232907  0.60840124  0.65594744     0.18500
H1892       H  0.90059205  0.75108655  0.68180207     0.18500
H1893       H  0.88252299  0.60992453  0.79740716     0.18600
H1894       H  0.88671602  0.72966698  0.82421840     0.18500
O1895       O  0.56419473  0.97272520  0.87686345    -0.72900
O1896       O  0.53562503  0.93385927  0.94090713    -0.51800
C1897       C  0.55886722  0.94720119  0.90490559     0.80800
O1898       O  0.56248515  0.62547623  0.96531739    -0.57500
O1899       O  0.50922023  0.60817783  0.92918717    -0.50600
C1900       C  0.54340408  0.63412124  0.94574448     0.72800
O1901       O  0.60804107  0.55791574  0.99326409    -0.72100
O1902       O  0.58380546  0.49303928  0.97823606    -0.52700
C1903       C  0.61190632  0.53045414  0.99033578     0.78800
O1904       O  0.53012354  0.04832271  0.82432062    -0.57200
O1905       O  0.00390872  0.58494768  0.84931649    -0.50400
C1906       C  0.02934699  0.58263555  0.83169069     0.75400
Zr1907     Zr  0.52993552  0.00015774  0.86975611     2.54700
O1908       O  0.62355890  0.59720459  0.86645091    -0.77800
O1909       O  0.02030825  0.95810603  0.80212372    -0.91200
Zr1910     Zr  0.55747085  0.56648342  0.98407879     2.64700
O1911       O  0.62690808  0.62699473  0.96517900    -0.96200
O1912       O  0.58203923  0.61272886  0.04961372    -0.78200
O1913       O  0.56604672  0.52614563  0.93742261    -0.81600
O1914       O  0.54495018  0.56580426  0.91094567    -2.16300
O1915       O  0.87491380  0.93346452  0.86646061    -0.65000
O1916       O  0.90313864  0.00048503  0.87160280    -0.49500
C1917       C  0.87372684  0.96248798  0.86386559     0.73800
O1918       O  0.88601789  0.41237912  0.50844982    -0.57900
O1919       O  0.43893199  0.91149205  0.52622061    -0.49900
C1920       C  0.92035785  0.92864619  0.51110215     0.75600
O1921       O  0.89593430  0.49365484  0.00235576    -0.69300
O1922       O  0.93010216  0.54495869  0.95107479    -0.48000
C1923       C  0.90326888  0.52420337  0.98248572     0.77000
O1924       O  0.91094161  0.86501296  0.91794128    -0.64600
O1925       O  0.96390538  0.88175108  0.95431910    -0.51800
C1926       C  0.92945027  0.85585568  0.93786598     0.75400
Zr1927     Zr  0.92078234  0.92553503  0.89450193     2.77500
O1928       O  0.86874492  0.88192884  0.95303504    -0.95400
O1929       O  0.89360628  0.87668344  0.83316716    -0.76200
Zr1930     Zr  0.93219334  0.46672042  0.00539651     2.70100
O1931       O  0.92156146  0.00503050  0.58137432    -0.77400
O1932       O  0.46472218  0.58183632  0.55476144    -0.96500
Zr1933     Zr  0.49450174  0.94820275  0.97705740     2.21500
Zr1934     Zr  0.96577444  0.53022545  0.90519389     2.11100
O1935       O  0.91652173  0.97129295  0.93622783    -2.45200
O1936       O  0.96890870  0.97386910  0.94312154    -0.77200
O1937       O  0.97048772  0.98905326  0.85588357    -0.69400
O1938       O  0.50504821  0.49439702  0.99215169    -2.30400
O1939       O  0.98487125  0.94286716  0.88588989    -2.26600
O1940       O  0.48997115  0.53582273  0.98337136    -0.71200
H1941       H  0.56463603  0.59386091  0.90275161     0.80800
H1942       H  0.52861026  0.54528650  0.56711178     0.81900
H1943       H  0.88978945  0.96166091  0.94063203     0.84100
H1944       H  0.98291539  0.92051891  0.87359524     0.81700
H1945       H  0.60075185  0.64074301  0.03724614     0.44800
H1946       H  0.45186781  0.57480488  0.58578821     0.43700
H1947       H  0.89875209  0.00232065  0.57189184     0.43400
H1948       H  0.85379715  0.89189759  0.95648741     0.41400
H1949       H  0.86602925  0.85370921  0.84423546     0.44500
H1950       H  0.99104846  0.93801290  0.80587747     0.39300
H1951       H  0.62107421  0.61827162  0.87156624     0.45400
H1952       H  0.64001856  0.61809361  0.94758503     0.41800
H1953       H  0.84963797  0.85507307  0.93817771     0.46700
H1954       H  0.51143583  0.92641442  0.82860548     0.45400
H1955       H  0.62675856  0.64398562  0.94378333     0.45600
H1956       H  0.90453336  0.51727324  0.58484358     0.45900
O1957       O  0.50656750  0.88839675  0.62747997    -0.72900
O1958       O  0.53682037  0.91025286  0.69503419    -0.51800
C1959       C  0.52545037  0.88865243  0.65889947     0.80800
O1960       O  0.55244205  0.59103214  0.63146754    -0.57500
O1961       O  0.48777921  0.56035222  0.62296386    -0.50600
C1962       C  0.52506249  0.59312491  0.62640681     0.72800
O1963       O  0.61582324  0.54759876  0.66415097    -0.72100
O1964       O  0.59835368  0.49695151  0.71103009    -0.52700
C1965       C  0.62436455  0.53107147  0.69072622     0.78800
O1966       O  0.41451412  0.89348274  0.61959337    -0.57200
O1967       O  0.91668273  0.45264804  0.59743355    -0.50400
C1968       C  0.90655435  0.41885316  0.60981577     0.75400
Zr1969     Zr  0.48317173  0.92430297  0.61139061     2.54700
O1970       O  0.52050692  0.43548944  0.54355177    -0.77800
O1971       O  0.93757407  0.87018970  0.56339553    -0.91200
Zr1972     Zr  0.55689562  0.53701039  0.63514785     2.64700
O1973       O  0.60489573  0.58291038  0.57676385    -0.96200
O1974       O  0.61664362  0.59707234  0.67095498    -0.78200
O1975       O  0.54231813  0.47251930  0.64016462    -0.81600
O1976       O  0.49496436  0.48244478  0.59794647    -2.16300
O1977       O  0.86348536  0.90620492  0.69464574    -0.65000
O1978       O  0.88308992  0.96039706  0.65339480    -0.49500
C1979       C  0.85643425  0.92623770  0.67317495     0.73800
O1980       O  0.04677511  0.52847249  0.77643267    -0.57900
O1981       O  0.57632017  0.99509209  0.78386200    -0.49900
C1982       C  0.08036989  0.04203989  0.77777990     0.75600
O1983       O  0.97353768  0.57302220  0.73653650    -0.69300
O1984       O  0.95128717  0.55643842  0.66472012    -0.48000
C1985       C  0.95498520  0.57244706  0.70401826     0.77000
O1986       O  0.92815800  0.87415307  0.76252238    -0.64600
O1987       O  0.99181958  0.89774924  0.75085107    -0.51800
C1988       C  0.95475063  0.87021481  0.76346845     0.75400
Zr1989     Zr  0.92220435  0.91874633  0.72264973     2.77500
O1990       O  0.88096702  0.91360859  0.78543689    -0.95400
O1991       O  0.87047762  0.85111233  0.69172996    -0.76200
Zr1992     Zr  0.00760294  0.54590660  0.74693970     2.70100
O1993       O  0.94968107  0.02021588  0.79901381    -0.77400
O1994       O  0.54174251  0.59246615  0.73675121    -0.96500
Zr1995     Zr  0.52822601  0.95672622  0.72447486     2.21500
Zr1996     Zr  0.96997837  0.51773771  0.63089077     2.11100
O1997       O  0.93992109  0.98347167  0.71386698    -2.45200
O1998       O  0.98228140  0.97113293  0.75889934    -0.77200
O1999       O  0.97140139  0.96439140  0.66745872    -0.69400
O2000       O  0.53660128  0.51477187  0.70635264    -2.30400
O2001       O  0.96786503  0.91195504  0.68569454    -2.26600
O2002       O  0.50627641  0.53111233  0.67354961    -0.71200
H2003       H  0.49283450  0.48087991  0.56624230     0.80800
H2004       H  0.56225350  0.53949267  0.71218275     0.81900
H2005       H  0.91908303  0.98362254  0.72581389     0.84100
H2006       H  0.95804706  0.88441942  0.68401694     0.81700
H2007       H  0.61818587  0.62053317  0.66508384     0.44800
H2008       H  0.56211228  0.59733864  0.71438961     0.43700
H2009       H  0.93222969  0.99036032  0.80100345     0.43400
H2010       H  0.87432991  0.93046659  0.77663322     0.41400
H2011       H  0.85491199  0.83381515  0.71884493     0.44500
H2012       H  0.92101168  0.84666926  0.58445961     0.39300
H2013       H  0.52029050  0.41241997  0.53895272     0.45400
H2014       H  0.61331162  0.60978594  0.58522271     0.41800
H2015       H  0.85526637  0.88548066  0.78314648     0.46700
H2016       H  0.45049921  0.85344644  0.55639122     0.45400
H2017       H  0.62854222  0.58619832  0.58394964     0.45600
H2018       H  0.04553863  0.62981717  0.72620457     0.45900
C2019       C  0.65157974  0.84605245  0.84188343     0.32400
C2020       C  0.66024376  0.85940627  0.94200251     0.32400
C2021       C  0.63644621  0.86694587  0.86695160    -0.03800
C2022       C  0.63058262  0.80814361  0.87373767    -0.04600
C2023       C  0.69416016  0.87295541  0.86041968    -0.04500
C2024       C  0.63977165  0.87281832  0.91511246    -0.03800
C2025       C  0.63504746  0.81553668  0.92205109    -0.04600
C2026       C  0.69922738  0.87931274  0.90841233    -0.04500
C2027       C  0.62465050  0.89175297  0.92831399    -0.29900
N2028       N  0.61249458  0.89782171  0.89101341     0.16600
C2029       C  0.61935639  0.88295365  0.85363820    -0.29900
H2030       H  0.61246596  0.88374862  0.81925528     0.18600
C2031       C  0.61607396  0.77930099  0.94314019    -0.28900
N2032       N  0.60040105  0.75004342  0.91120177     0.15300
C2033       C  0.60874066  0.76648482  0.86892713    -0.28900
C2034       C  0.73966627  0.90356109  0.91421978    -0.29100
N2035       N  0.75875370  0.91200154  0.87253827     0.15900
H2036       H  0.75412567  0.91409325  0.94636825     0.18500
C2037       C  0.73162690  0.89353576  0.83988646    -0.29200
H2038       H  0.73866472  0.89456080  0.80374022     0.18500
H2039       H  0.60019121  0.74954428  0.83729678     0.18500
H2040       H  0.62297498  0.90085407  0.96266044     0.18600
H2041       H  0.61445038  0.77448458  0.97935346     0.18500
C2042       C  0.64843093  0.82957402  0.59350075     0.32400
C2043       C  0.63860810  0.81966307  0.69279621     0.32400
C2044       C  0.62860941  0.84401515  0.62142484    -0.03800
C2045       C  0.62166652  0.78440433  0.61380442    -0.04600
C2046       C  0.68616756  0.85009907  0.62173990    -0.04500
C2047       C  0.62399083  0.83934725  0.67029941    -0.03800
C2048       C  0.61704856  0.77991731  0.66251724    -0.04600
C2049       C  0.68066668  0.84490659  0.67025915    -0.04500
C2050       C  0.59508185  0.84134012  0.68451370    -0.29900
N2051       N  0.58265689  0.84712715  0.64754794     0.16600
C2052       C  0.60218987  0.84856953  0.60929262    -0.29900
H2053       H  0.59593922  0.85048757  0.57499010     0.18600
C2054       C  0.59224985  0.73817887  0.67135862    -0.28900
N2055       N  0.58123310  0.71661232  0.63149144     0.15300
C2056       C  0.59894741  0.74439258  0.59653191    -0.28900
C2057       C  0.71640545  0.86118690  0.68703256    -0.29100
N2058       N  0.74346633  0.87598887  0.65180513     0.15900
H2059       H  0.72210454  0.86083651  0.72220347     0.18500
C2060       C  0.72599484  0.86954679  0.61195416    -0.29200
H2061       H  0.74078035  0.87704995  0.57843773     0.18500
H2062       H  0.59580674  0.73626388  0.56078449     0.18500
H2063       H  0.58234288  0.83663579  0.71886465     0.18600
H2064       H  0.58302653  0.72449521  0.70485106     0.18500
C2065       C  0.65139378  0.84552086  0.78488266    -0.14100
C2066       C  0.63451438  0.81520372  0.74960448    -0.29200
H2067       H  0.66906134  0.87615183  0.77151412     0.14900
H2068       H  0.61656820  0.78414854  0.76155895     0.15500
C2069       C  0.65654787  0.85790964  0.00252576    -0.14100
C2070       C  0.65333007  0.83504899  0.53618058    -0.29200
H2071       H  0.66886091  0.87307258  0.97387625     0.14900
H2072       H  0.64518104  0.80764616  0.52112518     0.15500
C2073       C  0.53879995  0.63549794  0.62649193    -0.10900
C2074       C  0.55723798  0.67283562  0.62793082    -0.12500
C2075       C  0.81607328  0.90760205  0.66592868    -0.10900
C2076       C  0.78283981  0.89309637  0.65746623    -0.12500
C2077       C  0.55562338  0.85360737  0.64914675    -0.10900
C2078       C  0.53711024  0.86501140  0.65222345    -0.12500
C2079       C  0.58014508  0.70954051  0.92267266    -0.10900
C2080       C  0.56346084  0.67573533  0.93618613    -0.12500
C2081       C  0.79985801  0.93372478  0.86430549    -0.10900
C2082       C  0.83480076  0.94994191  0.85923936    -0.12500
C2083       C  0.57982041  0.93179661  0.89574424    -0.10900
C2084       C  0.59527266  0.91642779  0.89192187    -0.12500
C2085       C  0.07112229  0.61817839  0.82901917    -0.16100
C2086       C  0.10531588  0.63390891  0.81998649     0.07900
C2087       C  0.12268729  0.11820081  0.78333408     0.09800
C2088       C  0.11282224  0.08535987  0.77505448    -0.17000
C2089       C  0.88348355  0.88723681  0.50886681    -0.16100
C2090       C  0.85109350  0.85715102  0.52226649     0.07900
C2091       C  0.83785572  0.34913462  0.59838713     0.09800
C2092       C  0.86498125  0.38243944  0.61233025    -0.17000
C2093       C  0.93562259  0.58960129  0.71257481    -0.10900
C2094       C  0.91710336  0.60156844  0.71874297    -0.12500
C2095       C  0.94018612  0.82988266  0.77060916    -0.10900
C2096       C  0.92316764  0.79421270  0.76507168    -0.12500
C2097       C  0.66548824  0.55306593  0.70269844    -0.10900
C2098       C  0.69858234  0.56947858  0.71605345    -0.12500
C2099       C  0.86879274  0.55602890  0.99472600    -0.10900
C2100       C  0.88057326  0.53714437  0.99426345    -0.12500
C2101       C  0.89421906  0.77975677  0.95622448    -0.10900
C2102       C  0.90930987  0.81394286  0.94598218    -0.12500
C2103       C  0.65046422  0.54334496  0.00002769    -0.10900
C2104       C  0.68495678  0.55845072  0.00346445    -0.12500
C2105       C  0.81643802  0.62460677  0.88191354    -0.14100
C2106       C  0.84231975  0.64299301  0.84192898    -0.29200
H2107       H  0.78518289  0.60399556  0.87443835     0.14900
H2108       H  0.87358639  0.66345392  0.84979860     0.15500
C2109       C  0.83528527  0.66853940  0.59723469    -0.14100
C2110       C  0.85078960  0.65935262  0.63055775    -0.29200
H2111       H  0.81871624  0.67768627  0.61140425     0.14900
H2112       H  0.86867170  0.65213137  0.61608831     0.15500
loop_ 
_geom_bond_atom_site_label_1 
_geom_bond_atom_site_label_2 
_geom_bond_distance 
_geom_bond_site_symmetry_2 
_ccdc_geom_bond_type 
C1            C3   1.555   1_554  S
C1            C5   1.570   1_554  S
C1            C4   1.585       .  S
C1          C261   1.703       .  S
C2            C6   1.555       .  S
C2            C8   1.540       .  S
C2            C7   1.571       .  S
C2          C257   1.678       .  S
C3           C11   1.369   1_556  A
C3          C270   1.443       .  A
C4           C15   1.394       .  A
C4          C271   1.441   1_554  A
C5           C19   1.389   1_556  A
C5          C272   1.443       .  A
C6            C9   1.373       .  A
C6          C267   1.458       .  A
C7           C13   1.388       .  A
C7          C268   1.432       .  A
C8           C16   1.368       .  A
C8          C269   1.429       .  A
C9           N10   1.348       .  A
C9           H22   1.082       .  S
N10         C275   1.342       .  A
N10         C251   1.385       .  S
C11         N274   1.349   1_554  A
C11          H12   1.083       .  S
C13         N278   1.364       .  A
C13          H23   1.082       .  S
N14          C15   1.367   1_556  A
N14         C277   1.357       .  A
N14         C520   1.420       .  S
C15          H21   1.082       .  S
C16         N281   1.349       .  A
C16          H18   1.083       .  S
N17          C19   1.364   1_556  A
N17         C280   1.345       .  A
N17         C517   1.399       .  S
C19          H20   1.082       .  S
C24          C26   1.568       .  S
C24          C28   1.533       .  S
C24          C27   1.596       .  S
C24         C262   1.702       .  S
C25          C29   1.564       .  S
C25          C31   1.542       .  S
C25          C30   1.541       .  S
C25         C258   1.679       .  S
C26          C34   1.386       .  A
C26          C29   1.441       .  A
C27          C38   1.397       .  A
C27          C30   1.441       .  A
C28          C42   1.352       .  A
C28          C31   1.440       .  A
C29          C32   1.376       .  A
C30          C36   1.370       .  A
C31          C39   1.366       .  A
C32          N33   1.354       .  A
C32          H45   1.082       .  S
N33          C34   1.363       .  A
N33         C246   1.410       .  S
C34          H35   1.082       .  S
C36          N37   1.350       .  A
C36          H46   1.083       .  S
N37          C38   1.371       .  A
N37         C248   1.416       .  S
C38          H44   1.082       .  S
C39          N40   1.351       .  A
C39          H41   1.083       .  S
N40          C42   1.344       .  A
N40         C250   1.373       .  S
C42          H43   1.083       .  S
O47         Zr59   2.480       .  S
O47          C49   1.290       .  A
O48         Zr85   2.471   1_455  S
O48          C49   1.288       .  A
C49         C235   1.474       .  S
O50         Zr62   2.452       .  S
O50          C52   1.282       .  A
O51       Zr1142   2.374   1_455  S
O51          C52   1.272       .  A
C52         C232   1.403       .  S
O53         Zr62   2.491       .  S
O53          C55   1.295       .  A
O54        Zr613   2.500   1_545  S
O54          C55   1.300       .  A
C55         C255   1.458       .  S
O56         Zr59   2.476       .  S
O56        C1642   1.280       .  A
O57         Zr86   2.434       .  S
O57          C58   1.261       .  A
C58        O1640   1.284       .  A
C58         C237   1.442       .  S
Zr59        O588   2.455       .  S
Zr59       O1117   2.424       .  S
Zr59        O593   2.291       .  S
Zr59        O594   2.350       .  S
Zr59       O1145   2.426   1_455  S
Zr59       O1147   2.357   1_455  S
O60        Zr587   2.461       .  S
O60         H103   0.989       .  S
O61       Zr1115   2.434       .  S
O61         H102   0.980       .  S
O61        H1162   0.989       .  S
Zr62         O63   2.443       .  S
Zr62         O64   2.422       .  S
Zr62         O66   2.277       .  S
Zr62         O65   2.355       .  S
Zr62         O90   2.356       .  S
Zr62         O92   2.407       .  S
O63         H104   0.990       .  S
O63         H107   0.990       .  S
O64          H97   0.990       .  S
O65        Zr587   2.279       .  S
O65        Zr613   2.283   1_545  S
O66        Zr587   2.336       .  S
O66       Zr1142   2.480   1_455  S
O66          H93   0.963       .  S
O67         Zr79   2.451       .  S
O67          C69   1.284       .  A
O68        Zr614   2.513       .  S
O68          C69   1.296       .  A
C69         C234   1.457       .  S
O70        Zr346   2.403       .  S
O70         C600   1.273       .  A
O71        Zr349   2.366   1_654  S
O71        C1128   1.226       .  A
C72         O598   1.295       .  A
C72        O1127   1.232   1_554  A
C72         C241   1.441       .  S
O73         Zr82   2.423   1_545  S
O73          C75   1.278       .  A
O74         Zr86   2.381       .  S
O74          C75   1.274       .  A
C75         C252   1.409       .  S
O76         Zr79   2.492       .  S
O76          C78   1.293       .  A
O77       Zr1141   2.445       .  S
O77          C78   1.285       .  A
C78         C254   1.442       .  S
Zr79         O80   2.448       .  S
Zr79         O81   2.400       .  S
Zr79         O87   2.384       .  S
Zr79         O88   2.393       .  S
Zr79         O91   2.384       .  S
Zr79         O89   2.360       .  S
O80         H100   0.991       .  S
O80         H105   0.990       .  S
O81         H101   0.990       .  S
Zr82        O334   2.385       .  S
Zr82        O875   2.439       .  S
Zr82       O1404   2.410   1_565  S
Zr82        O616   2.359       .  S
Zr82        O615   2.288       .  S
Zr82       O1148   2.331   1_565  S
Zr82       O1146   2.353   1_565  S
O83        Zr874   2.427   1_556  S
O83          H99   0.990   1_556  S
O84       Zr1402   2.451   1_545  S
O84          H98   0.990       .  S
O84        H1164   0.988       .  S
Zr85        O582   2.546   1_655  S
Zr85        O335   2.425       .  S
Zr85       O1133   2.398       .  S
Zr85        O593   2.274   1_655  S
Zr85       O1144   2.369       .  S
Zr85        O618   2.389       .  S
Zr85       O1147   2.310       .  S
Zr86       O1107   2.419       .  S
Zr86        O596   2.466   1_545  S
Zr86       O1122   2.446       .  S
Zr86        O615   2.405   1_545  S
Zr86        O617   2.463   1_545  S
Zr86       O1148   2.387       .  S
O87        Zr610   2.299       .  S
O87        Zr614   2.395       .  S
O87          H95   0.962       .  S
O88        Zr610   2.375       .  S
O88       Zr1141   2.344       .  S
O89       Zr1115   2.413       .  S
O89        Zr614   2.456       .  S
O90       Zr1138   2.421   1_455  S
O90        Zr613   2.498   1_545  S
O90         H358   0.961       .  S
O91       Zr1115   2.336       .  S
O91       Zr1141   2.328       .  S
O91          H96   0.963       .  S
O92       Zr1138   2.310   1_455  S
O92       Zr1142   2.393   1_455  S
H94         O354   0.898   1_664  S
H106       O1117   0.989       .  S
H108       O1140   0.989       .  S
O109       Zr121   2.436       .  S
O109        C111   1.284       .  A
O110       Zr147   2.436       .  S
O110        C111   1.285       .  A
C111        C230   1.429       .  S
O112       Zr124   2.464       .  S
O112        C114   1.290       .  A
O113      Zr1204   2.438   1_455  S
O113        C114   1.288       .  A
C114        C225   1.434       .  S
O115       Zr124   2.419       .  S
O115        C117   1.282       .  A
O116       Zr675   2.377   1_545  S
O116        C117   1.274       .  A
C117        C249   1.394       .  S
O118       Zr121   2.378   1_655  S
O118       C1704   1.250   1_655  A
O119       Zr148   2.429   1_565  S
O119        C120   1.280       .  A
C120       O1702   1.271       .  A
C120        C244   1.446       .  S
Zr121       O650   2.517       .  S
Zr121      O1179   2.505   1_455  S
Zr121       O655   2.324       .  S
Zr121       O656   2.371       .  S
Zr121      O1207   2.396   1_455  S
Zr121      O1209   2.181   1_455  S
O122       Zr649   2.505   1_545  S
O122        H165   0.995   1_545  S
O123      Zr1177   2.490       .  S
O123        H164   0.989       .  S
O123       H1224   0.990       .  S
Zr124       O125   2.440       .  S
Zr124       O126   2.441       .  S
Zr124       O128   2.326       .  S
Zr124       O127   2.430       .  S
Zr124       O152   2.230       .  S
Zr124       O154   2.407       .  S
O125        H166   0.990       .  S
O125        H169   0.990       .  S
O126        H159   0.990       .  S
O127       Zr649   2.333   1_545  S
O127       Zr675   2.377   1_545  S
O128       Zr649   2.373   1_545  S
O128      Zr1204   2.382   1_455  S
O128        H155   0.951       .  S
O129       Zr141   2.458       .  S
O129        C131   1.288       .  A
O130       Zr676   2.406       .  S
O130        C131   1.283       .  A
C131        C227   1.435       .  S
O132       Zr144   2.490       .  S
O132        C662   1.285       .  A
O133       Zr147   2.436       .  S
O133       C1190   1.259       .  A
C134        O660   1.297       .  A
C134       O1189   1.258       .  A
C134        C240   1.441       .  S
O135       Zr144   2.484       .  S
O135        C137   1.292       .  A
O136       Zr148   2.411       .  S
O136        C137   1.280       .  A
C137        C245   1.447       .  S
O138       Zr141   2.481       .  S
O138        C140   1.295       .  A
O139      Zr1203   2.517       .  S
O139        C140   1.301       .  A
C140        C247   1.451       .  S
Zr141       O142   2.439       .  S
Zr141       O143   2.437       .  S
Zr141       O149   2.376       .  S
Zr141       O150   2.424       .  S
Zr141       O153   2.362       .  S
Zr141       O151   2.381       .  S
O142        H162   0.990       .  S
O142        H167   0.990       .  S
O143        H163   0.990       .  S
Zr144       O673   2.434       .  S
Zr144      O1202   2.460       .  S
Zr144       O678   2.429   1_545  S
Zr144       O677   2.347       .  S
Zr144      O1210   2.310       .  S
Zr144      O1208   2.350       .  S
O145       Zr672   2.395       .  S
O145        H161   0.988       .  S
O146      Zr1200   2.477       .  S
O146        H160   0.990       .  S
O146       H1226   0.990       .  S
Zr147       O644   2.377       .  S
Zr147      O1195   2.543   1_455  S
Zr147       O655   2.376       .  S
Zr147      O1206   2.466   1_455  S
Zr147       O680   2.494       .  S
Zr147      O1209   2.331   1_455  S
Zr148      O1169   2.479       .  S
Zr148       O658   2.438   1_545  S
Zr148      O1184   2.434       .  S
Zr148       O677   2.332       .  S
Zr148       O679   2.332   1_545  S
Zr148      O1210   2.298       .  S
O149       Zr672   2.358       .  S
O149       Zr676   2.322       .  S
O149        H157   0.964       .  S
O150       Zr672   2.419       .  S
O150      Zr1203   2.461       .  S
O151      Zr1177   2.396       .  S
O151       Zr676   2.439       .  S
O152      Zr1200   2.342       .  S
O152       Zr675   2.490   1_545  S
O152        H156   0.964       .  S
O153      Zr1177   2.197       .  S
O153      Zr1203   2.353       .  S
O153        H158   0.953       .  S
O154      Zr1200   2.316       .  S
O154      Zr1204   2.330   1_455  S
H168       O1179   0.990       .  S
H170       O1202   0.989       .  S
C171        C173   1.574       .  S
C171        C175   1.562       .  S
C171        C174   1.553       .  S
C171        C217   1.676       .  S
C172        C176   1.576       .  S
C172        C178   1.573       .  S
C172        C177   1.526       .  S
C172        C221   1.685       .  S
C173        C181   1.393       .  A
C173        C176   1.436       .  A
C174        C185   1.379       .  A
C174        C177   1.437       .  A
C175        C189   1.381       .  A
C175        C178   1.437       .  A
C176        C179   1.391       .  A
C177        C183   1.347       .  A
C178        C186   1.390       .  A
C179        N180   1.364       .  A
C179        H192   1.082       .  S
N180        C181   1.366       .  A
N180        C236   1.429       .  S
C181        H182   1.082       .  S
C183        N184   1.339       .  A
C183        H193   1.082       .  S
N184        C185   1.354       .  A
N184        C231   1.376       .  S
C185        H191   1.079       .  S
C186        N187   1.367       .  A
C186        H188   1.082       .  S
N187        C189   1.357       .  A
N187        C233   1.419       .  S
C189        H190   1.083       .  S
C194        C196   1.612       .  S
C194        C198   1.624       .  S
C194        C197   1.566       .  S
C194        C222   1.787       .  S
C195        C199   1.541       .  S
C195        C201   1.541       .  S
C195        C200   1.568       .  S
C195        C218   1.671       .  S
C196        C204   1.378       .  A
C196        C199   1.437       .  A
C197        C208   1.372       .  A
C197        C200   1.432       .  A
C198        C212   1.384       .  A
C198        C201   1.438       .  A
C199        C202   1.369       .  A
C200        C206   1.385       .  A
C201        C209   1.368       .  A
C202        N203   1.352       .  A
C202        H215   1.083       .  S
N203        C204   1.357       .  A
N203        C229   1.398       .  S
C204        H205   1.082       .  S
C206        N207   1.361       .  A
C206        H216   1.082       .  S
N207        C208   1.349       .  A
N207        C226   1.403       .  S
C208        H214   1.083       .  S
C209        N210   1.351       .  A
C209        H211   1.083       .  S
N210        C212   1.361       .  A
N210        C228   1.402       .  S
C212        H213   1.082       .  S
C217        C218   1.436       .  D
C217        H219   1.085       .  S
C218        H220   1.078       .  S
C221        C486   1.453       .  D
C221        H223   1.075       .  S
C222        C485   1.437   1_554  D
C222        H224   0.984       .  S
C225        C226   1.207       .  T
C227        C228   1.206       .  T
C229        C230   1.203       .  T
C231        C232   1.186       .  T
C233        C234   1.221       .  T
C235        C236   1.229       .  T
C237        C238   1.198       .  T
C238        C767   1.389       .  S
C239        C240   1.197       .  T
C239        C766   1.388       .  S
C241        C242   1.206       .  T
C242        C771   1.424       .  S
C243        C244   1.206       .  T
C243        C770   1.401       .  S
C245        C246   1.213       .  T
C247        C248   1.218       .  T
C249        C250   1.182       .  T
C251        C252   1.191       .  T
C253        N281   1.406       .  S
C253        C254   1.210       .  T
C255        C256   1.220       .  T
C256        N278   1.419       .  S
C257        C258   1.436       .  D
C257        H259   1.085       .  S
C258        H260   1.082       .  S
C261        C262   1.456       .  D
C261        H263   1.085       .  S
C262        H264   1.084       .  S
C265        C267   1.551       .  S
C265        C269   1.568       .  S
C265        C268   1.561       .  S
C265        C525   1.678       .  S
C266        C270   1.547       .  S
C266        C272   1.546       .  S
C266        C271   1.559       .  S
C266        C521   1.687       .  S
C267        C275   1.371       .  A
C268        C279   1.383       .  A
C269        C283   1.389       .  A
C270        C273   1.374       .  A
C271        C277   1.378       .  A
C272        C280   1.362       .  A
C273        N274   1.354       .  A
C273        H286   1.081       .  S
N274        C515   1.391       .  S
C275        H276   1.080       .  S
C277        H287   1.083       .  S
N278        C279   1.359       .  A
C279        H285   1.082       .  S
C280        H282   1.083       .  S
N281        C283   1.365       .  A
C283        H284   1.082       .  S
C288        C290   1.572       .  S
C288        C292   1.543       .  S
C288        C291   1.567       .  S
C288        C526   1.674       .  S
C289        C293   1.580       .  S
C289        C295   1.588       .  S
C289        C294   1.536       .  S
C289        C522   1.684       .  S
C290        C298   1.394       .  A
C290        C293   1.431       .  A
C291        C302   1.384       .  A
C291        C294   1.436       .  A
C292        C306   1.370       .  A
C292        C295   1.437       .  A
C293        C296   1.398       .  A
C294        C300   1.363       .  A
C295        C303   1.399       .  A
C296        N297   1.365       .  A
C296        H309   1.082       .  S
N297        C298   1.363       .  A
N297        C510   1.432       .  S
C298        H299   1.082       .  S
C300        N301   1.346       .  A
C300        H310   1.082       .  S
N301        C302   1.364       .  A
N301        C512   1.397       .  S
C302        H308   1.083       .  S
C303        N304   1.372       .  A
C303        H305   1.082       .  S
N304        C306   1.349       .  A
N304        C514   1.418       .  S
C306        H307   1.082       .  S
O311       Zr323   2.512       .  S
O311        C313   1.294       .  A
O312       Zr349   2.388       .  S
O312        C313   1.273       .  A
C313        C499   1.452       .  S
O314       Zr326   2.484       .  S
O314        C316   1.290       .  A
O315      Zr1406   2.431   1_455  S
O315        C316   1.284       .  A
C316        C496   1.455       .  S
O317       Zr326   2.484       .  S
O317        C319   1.293       .  A
O318       Zr877   2.540       .  S
O318        C319   1.305   1_565  A
C319        C519   1.459       .  S
O320       Zr323   2.492       .  S
O320       C1906   1.285       .  A
O321       Zr350   2.431       .  S
O321        C322   1.268       .  A
C322       O1904   1.282       .  A
C322        C501   1.438       .  S
Zr323       O852   2.463       .  S
Zr323      O1381   2.413       .  S
Zr323       O857   2.292       .  S
Zr323       O858   2.353       .  S
Zr323      O1409   2.451   1_455  S
Zr323      O1411   2.392   1_455  S
O324       Zr851   2.453       .  S
O324        H367   0.989       .  S
O325      Zr1379   2.494       .  S
O325        H366   0.990       .  S
O325       H1426   0.995       .  S
Zr326       O327   2.454       .  S
Zr326       O328   2.442   1_556  S
Zr326       O330   2.255       .  S
Zr326       O329   2.398       .  S
Zr326       O354   2.377       .  S
Zr326       O356   2.340   1_455  S
O327        H368   0.990       .  S
O327        H371   0.988       .  S
O328        H361   0.990       .  S
O329       Zr851   2.291       .  S
O329       Zr877   2.309   1_545  S
O330       Zr851   2.363       .  S
O330      Zr1406   2.437   1_455  S
O330        H357   0.958       .  S
O331       Zr343   2.465       .  S
O331        C333   1.289       .  A
O332       Zr878   2.486       .  S
O332        C333   1.292       .  A
C333        C498   1.461       .  S
O334        C864   1.268       .  A
O335       C1392   1.285       .  A
C336        O862   1.269       .  A
C336       O1391   1.287       .  A
C336        C505   1.439       .  S
O337       Zr346   2.451   1_546  S
O337        C339   1.282       .  A
O338       Zr350   2.382       .  S
O338        C339   1.274       .  A
C339        C516   1.420       .  S
O340       Zr343   2.441       .  S
O340        C342   1.277       .  A
O341      Zr1405   2.412       .  S
O341        C342   1.273       .  A
C342        C518   1.432       .  S
Zr343       O344   2.450       .  S
Zr343       O345   2.364       .  S
Zr343       O351   2.358       .  S
Zr343       O352   2.293       .  S
Zr343       O355   2.438       .  S
Zr343       O353   2.387       .  S
O344        H364   0.990       .  S
O344        H369   0.989       .  S
O345        H365   0.990       .  S
Zr346       O611   2.440       .  S
Zr346      O1140   2.433   1_565  S
Zr346       O880   2.364   1_554  S
Zr346       O879   2.282   1_554  S
Zr346      O1412   2.331   1_564  S
Zr346      O1410   2.388       .  S
O347       Zr610   2.394       .  S
O347        H363   0.990       .  S
O348      Zr1138   2.460       .  S
O348        H362   0.991       .  S
O348       H1428   0.986   1_655  S
Zr349       O846   2.528       .  S
Zr349      O1397   2.405   1_455  S
Zr349       O857   2.309       .  S
Zr349      O1408   2.370   1_455  S
Zr349       O882   2.343   1_455  S
Zr349      O1411   2.288   1_455  S
Zr350      O1371   2.403       .  S
Zr350       O860   2.458   1_545  S
Zr350      O1386   2.404       .  S
Zr350       O879   2.402   1_545  S
Zr350       O881   2.452   1_545  S
Zr350      O1412   2.383       .  S
O351       Zr874   2.305   1_556  S
O351       Zr878   2.419       .  S
O351        H359   0.965       .  S
O352       Zr874   2.355   1_556  S
O352      Zr1405   2.340       .  S
O353      Zr1379   2.474       .  S
O353       Zr878   2.437       .  S
O354      Zr1402   2.330   1_446  S
O354       Zr877   2.340   1_545  S
O355      Zr1379   2.412       .  S
O355      Zr1405   2.342       .  S
O355        H360   0.965       .  S
O356      Zr1402   2.299   1_546  S
O356      Zr1406   2.318       .  S
H370       O1381   0.988       .  S
H372       O1404   0.990       .  S
O373       Zr385   2.454       .  S
O373        C375   1.283       .  A
O374       Zr411   2.355       .  S
O374        C375   1.268       .  A
C375        C494   1.416       .  S
O376       Zr388   2.472       .  S
O376        C378   1.286       .  A
O377      Zr1468   2.535       .  S
O377        C378   1.304   1_655  A
C378        C489   1.491       .  S
O379       Zr388   2.518       .  S
O379        C381   1.298       .  A
O380       Zr939   2.403   1_545  S
O380        C381   1.280       .  A
C381        C513   1.458       .  S
O382       Zr385   2.407   1_655  S
O382       C1968   1.268       .  A
O383       Zr412   2.418   1_565  S
O383        C384   1.286       .  A
C384       O1966   1.268       .  A
C384        C508   1.445       .  S
Zr385       O914   2.429       .  S
Zr385      O1443   2.474   1_455  S
Zr385       O919   2.359       .  S
Zr385       O920   2.435       .  S
Zr385      O1471   2.350   1_455  S
Zr385      O1473   2.272   1_455  S
O386       Zr913   2.417   1_455  S
O386        H429   0.990       .  S
O387      Zr1441   2.440       .  S
O387        H428   0.992       .  S
O387       H1488   0.988       .  S
Zr388       O389   2.385       .  S
Zr388       O390   2.457       .  S
Zr388       O392   2.461   1_445  S
Zr388       O391   2.410   1_545  S
Zr388       O416   2.236       .  S
Zr388       O418   2.375       .  S
O389        H430   0.986       .  S
O389        H433   0.990       .  S
O390        H423   0.989       .  S
O391       Zr913   2.338   1_455  S
O391       Zr939   2.395       .  S
O392       Zr913   2.357       .  S
O392      Zr1468   2.406   1_565  S
O392        H419   0.941       .  S
O393       Zr405   2.471       .  S
O393        C395   1.289       .  A
O394       Zr940   2.407       .  S
O394        C395   1.275       .  A
C395        C491   1.424       .  S
O396       Zr408   2.462       .  S
O396        C926   1.282       .  A
O397       Zr411   2.439       .  S
O397       C1454   1.257       .  A
C398        O924   1.284       .  A
C398       O1453   1.257       .  A
C398        C504   1.461       .  S
O399       Zr408   2.496       .  S
O399        C401   1.293       .  A
O400       Zr412   2.460       .  S
O400        C401   1.285       .  A
C401        C509   1.479       .  S
O402       Zr405   2.445       .  S
O402        C404   1.288       .  A
O403      Zr1467   2.441       .  S
O403        C404   1.288       .  A
C404        C511   1.422       .  S
Zr405       O406   2.424       .  S
Zr405       O407   2.440       .  S
Zr405       O413   2.398       .  S
Zr405       O414   2.396       .  S
Zr405       O417   2.409       .  S
Zr405       O415   2.350       .  S
O406        H426   0.990       .  S
O406        H431   0.990       .  S
O407        H427   0.990       .  S
Zr408       O937   2.434       .  S
Zr408      O1466   2.437       .  S
Zr408       O942   2.426   1_545  S
Zr408       O941   2.342   1_545  S
Zr408      O1472   2.359       .  S
Zr408      O1474   2.245       .  S
O409       Zr936   2.426       .  S
O409        H425   0.990       .  S
O410      Zr1464   2.451       .  S
O410        H424   0.988       .  S
O410       H1490   0.989       .  S
Zr411       O908   2.386       .  S
Zr411      O1459   2.544       .  S
Zr411       O919   2.402       .  S
Zr411      O1470   2.473   1_455  S
Zr411       O944   2.455       .  S
Zr411      O1473   2.362   1_455  S
Zr412      O1433   2.491       .  S
Zr412       O922   2.439   1_545  S
Zr412      O1448   2.477   1_545  S
Zr412       O941   2.332   1_545  S
Zr412       O943   2.335   1_545  S
Zr412      O1474   2.198       .  S
O413       Zr936   2.341       .  S
O413       Zr940   2.367       .  S
O413        H421   0.966       .  S
O414       Zr936   2.449       .  S
O414      Zr1467   2.479       .  S
O415      Zr1441   2.368       .  S
O415       Zr940   2.343       .  S
O416      Zr1464   2.347       .  S
O416       Zr939   2.392   1_545  S
O416        H420   0.950       .  S
O417      Zr1441   2.283       .  S
O417      Zr1467   2.384       .  S
O417        H422   0.964       .  S
O418      Zr1464   2.301       .  S
O418      Zr1468   2.290   1_455  S
H432       O1443   0.988       .  S
H434       O1466   0.990       .  S
C435        C437   1.551       .  S
C435        C439   1.561       .  S
C435        C438   1.576       .  S
C435        C481   1.665       .  S
C436        C440   1.568       .  S
C436        C442   1.568       .  S
C436        C441   1.557       .  S
C436        C485   1.669       .  S
C437        C445   1.380       .  A
C437        C440   1.426       .  A
C438        C449   1.389       .  A
C438        C441   1.442       .  A
C439        C453   1.386       .  A
C439        C442   1.428       .  A
C440        C443   1.390       .  A
C441        C447   1.376       .  A
C442        C450   1.389       .  A
C443        N444   1.365       .  A
C443        H456   1.082       .  S
N444        C445   1.355       .  A
N444        C500   1.416       .  S
C445        H446   1.083       .  S
C447        N448   1.356       .  A
C447        H457   1.082       .  S
N448        C449   1.365       .  A
N448        C495   1.415       .  S
C449        H455   1.082       .  S
C450        N451   1.364       .  A
C450        H452   1.082       .  S
N451        C453   1.360       .  A
N451        C497   1.421       .  S
C453        H454   1.082       .  S
C458        C460   1.551       .  S
C458        C462   1.576       .  S
C458        C461   1.590       .  S
C458        C486   1.689       .  S
C459        C463   1.547       .  S
C459        C465   1.519       .  S
C459        C464   1.577       .  S
C459        C482   1.664       .  S
C460        C468   1.371       .  A
C460        C463   1.437       .  A
C461        C472   1.402       .  A
C461        C464   1.438       .  A
C462        C476   1.390       .  A
C462        C465   1.432       .  A
C463        C466   1.372       .  A
C464        C470   1.394       .  A
C465        C473   1.355       .  A
C466        N467   1.354       .  A
C466        H479   1.083       .  S
N467        C468   1.347       .  A
N467        C493   1.390       .  S
C468        H469   1.077       .  S
C470        N471   1.365       .  A
C470        H480   1.082       .  S
N471        C472   1.371       .  A
N471        C490   1.439       .  S
C472        H478   1.082       .  S
C473        N474   1.340       .  A
C473        H475   1.083       .  S
N474        C476   1.366       .  A
N474        C492   1.395       .  S
C476        H477   1.082       .  S
C481        C482   1.428       .  D
C481        H483   1.085       .  S
C482        H484   1.084       .  S
C485        H487   1.087       .  S
C486        H488   1.084       .  S
C489        C490   1.238       .  T
C491        C492   1.201       .  T
C493        C494   1.196       .  T
C495        C496   1.218       .  T
C497        C498   1.222       .  T
C499        C500   1.218       .  T
C501        C502   1.200       .  T
C502       C1031   1.401       .  S
C503        C504   1.211       .  T
C503       C1030   1.413       .  S
C505        C506   1.202       .  T
C506       C1035   1.394       .  S
C507        C508   1.203       .  T
C507       C1034   1.401       .  S
C509        C510   1.232       .  T
C511        C512   1.202       .  T
C513        C514   1.220       .  T
C515        C516   1.197       .  T
C517        C518   1.204       .  T
C519        C520   1.221       .  T
C521        C522   1.440       .  D
C521        H523   1.085       .  S
C522        H524   1.080       .  S
C525        C526   1.438       .  D
C525        H527   1.085       .  S
C526        H528   1.079       .  S
C529        C531   1.618       .  S
C529        C533   1.627       .  S
C529        C532   1.610       .  S
C529        C789   1.814       .  S
C530        C534   1.533       .  S
C530        C536   1.529       .  S
C530        C535   1.575       .  S
C530        C785   1.661       .  S
C531        C539   1.379       .  A
C531        C798   1.435   1_554  A
C532        C543   1.400       .  A
C532        C799   1.435   1_554  A
C533        C547   1.385       .  A
C533        C800   1.434   1_554  A
C534        C795   1.435       .  A
C534        C537   1.364       .  A
C535        C796   1.436       .  A
C535        C541   1.392       .  A
C536        C797   1.433       .  A
C536        C544   1.362       .  A
C537        N538   1.347       .  A
C537        H550   1.083       .  S
N538        C803   1.346       .  A
N538        C779   1.379       .  S
C539        N802   1.355   1_554  A
C539        H540   1.083       .  S
C541        N806   1.364       .  A
C541        H551   1.082       .  S
N542        C805   1.354       .  A
N542        C543   1.369   1_556  A
N542       C1048   1.425       .  S
C543        H549   1.082       .  S
C544        N809   1.346       .  A
C544        H546   1.083       .  S
N545        C808   1.351       .  A
N545        C547   1.361   1_556  A
N545       C1045   1.405       .  S
C547        H548   1.082       .  S
C552        C554   1.561       .  S
C552        C556   1.530       .  S
C552        C555   1.582       .  S
C552        C790   1.681       .  S
C553        C557   1.557       .  S
C553        C559   1.551       .  S
C553        C558   1.560       .  S
C553        C786   1.666       .  S
C554        C562   1.379       .  A
C554        C557   1.435       .  A
C555        C566   1.395       .  A
C555        C558   1.436       .  A
C556        C570   1.353       .  A
C556        C559   1.437       .  A
C557        C560   1.378       .  A
C558        C564   1.383       .  A
C559        C567   1.372       .  A
C560        N561   1.356       .  A
C560        H573   1.083       .  S
N561        C562   1.359       .  A
N561        C774   1.406       .  S
C562        H563   1.083       .  S
C564        N565   1.358       .  A
C564        H574   1.083       .  S
N565        C566   1.368       .  A
N565        C776   1.425       .  S
C566        H572   1.082       .  S
C567        N568   1.353       .  A
C567        H569   1.080       .  S
N568        C570   1.342       .  A
N568        C778   1.376       .  S
C570        H571   1.082       .  S
O575       Zr587   2.471   1_565  S
O575        C577   1.289       .  A
O576       Zr613   2.464       .  S
O576        C577   1.289       .  A
C577        C763   1.465       .  S
O578       Zr590   2.501       .  S
O578        C580   1.296       .  A
O579      Zr1670   2.374   1_455  S
O579        C580   1.274       .  A
C580        C760   1.437       .  S
O581       Zr590   2.478       .  S
O581        C583   1.286       .  A
O582        C583   1.294       .  A
C583        C783   1.484       .  S
O584       Zr587   2.507       .  S
O584       C1114   1.288       .  A
O585       Zr614   2.421       .  S
O585        C586   1.259       .  A
C586       O1112   1.287       .  A
C586        C765   1.440       .  S
Zr587      O1645   2.422   1_545  S
Zr587      O1673   2.422   1_455  S
Zr587      O1675   2.339   1_545  S
O588        H631   0.987       .  S
O589      Zr1643   2.435   1_565  S
O589        H630   0.986       .  S
O589       H1690   0.989       .  S
Zr590       O591   2.471       .  S
Zr590       O592   2.375       .  S
Zr590       O594   2.254       .  S
Zr590       O593   2.352       .  S
Zr590       O618   2.474   1_455  S
Zr590       O620   2.409   1_455  S
O591        H632   0.990       .  S
O591        H635   0.987       .  S
O592        H625   0.991       .  S
O594      Zr1670   2.416   1_455  S
O594        H621   0.953       .  S
O595       Zr607   2.450       .  S
O595        C597   1.289       .  A
O596        C597   1.290       .  A
C597        C762   1.435       .  S
O598       Zr874   2.547       .  S
O599       Zr877   2.378   1_654  S
O599       C1656   1.229       .  A
C600       O1655   1.278       .  A
C600        C769   1.438       .  S
O601       Zr610   2.428       .  S
O601        C603   1.279       .  A
O602       Zr614   2.368       .  S
O602        C603   1.271       .  A
C603        C780   1.400       .  S
O604       Zr607   2.478       .  S
O604        C606   1.292       .  A
O605      Zr1669   2.445       .  S
O605        C606   1.284       .  A
C606        C782   1.443       .  S
Zr607       O608   2.446       .  S
Zr607       O609   2.412       .  S
Zr607       O615   2.397       .  S
Zr607       O616   2.354       .  S
Zr607       O619   2.394       .  S
Zr607       O617   2.392       .  S
O608        H628   0.990       .  S
O608        H633   0.990       .  S
O609        H629   0.990       .  S
Zr610       O862   2.385       .  S
Zr610      O1932   2.453       .  S
Zr610      O1676   2.316       .  S
Zr610      O1674   2.407       .  S
O611        H627   0.990       .  S
O612      Zr1930   2.405       .  S
O612        H626   0.990       .  S
O612       H1692   0.988       .  S
Zr613       O863   2.446   1_455  S
Zr613      O1661   2.471   1_455  S
Zr613      O1672   2.341   1_465  S
Zr613      O1675   2.331       .  S
Zr614      O1635   2.382       .  S
Zr614      O1650   2.477       .  S
Zr614      O1676   2.396       .  S
O615        H623   0.963       .  S
O616      Zr1669   2.344       .  S
O617      Zr1643   2.434   1_565  S
O618      Zr1666   2.340       .  S
O618        H886   0.945       .  S
O619      Zr1643   2.348   1_565  S
O619      Zr1669   2.341       .  S
O619        H624   0.964       .  S
O620      Zr1666   2.343       .  S
O620      Zr1670   2.400       .  S
H622        O882   0.895   1_554  S
H634       O1645   0.989       .  S
H636       O1668   0.990       .  S
O637       Zr649   2.426       .  S
O637        C639   1.284       .  A
O638       Zr675   2.438       .  S
O638        C639   1.285       .  A
C639        C758   1.431       .  S
O640       Zr652   2.449       .  S
O640        C642   1.287       .  A
O641      Zr1732   2.425   1_455  S
O641        C642   1.285       .  A
C642        C753   1.426       .  S
O643       Zr652   2.428       .  S
O643        C645   1.283       .  A
O644        C645   1.273       .  A
C645        C777   1.397       .  S
O646       Zr649   2.374   1_645  S
O646       C1176   1.251   1_655  A
O647       Zr676   2.393       .  S
O647        C648   1.254       .  A
C648       O1174   1.250       .  A
C648        C772   1.444       .  S
Zr649      O1707   2.499   1_455  S
Zr649      O1735   2.382   1_455  S
Zr649      O1737   2.190   1_455  S
O650        H693   0.999       .  S
O651      Zr1705   2.426       .  S
O651        H692   0.991       .  S
O651       H1752   0.989       .  S
Zr652       O653   2.438       .  S
Zr652       O654   2.440       .  S
Zr652       O656   2.323       .  S
Zr652       O655   2.406       .  S
Zr652       O680   2.239       .  S
Zr652       O682   2.407       .  S
O653        H694   0.990       .  S
O653        H697   0.990       .  S
O654        H687   0.990       .  S
O656      Zr1732   2.370   1_455  S
O656        H683   0.945       .  S
O657       Zr669   2.483       .  S
O657        C659   1.292       .  A
O658        C659   1.282       .  A
C659        C755   1.442       .  S
O660       Zr672   2.529       .  S
O661       Zr675   2.427   1_545  S
O661       C1718   1.258       .  A
C662       O1717   1.260       .  A
C662        C768   1.437       .  S
O663       Zr672   2.465       .  S
O663        C665   1.290       .  A
O664       Zr676   2.418       .  S
O664        C665   1.282       .  A
C665        C773   1.440       .  S
O666       Zr669   2.442       .  S
O666        C668   1.285       .  A
O667      Zr1731   2.518       .  S
O667        C668   1.300       .  A
C668        C775   1.465       .  S
Zr669       O670   2.392       .  S
Zr669       O671   2.436       .  S
Zr669       O677   2.373   1_565  S
Zr669       O678   2.370       .  S
Zr669       O681   2.385       .  S
Zr669       O679   2.368       .  S
O670        H690   0.988       .  S
O670        H695   0.991       .  S
O671        H691   0.990       .  S
Zr672      O1730   2.474       .  S
Zr672      O1738   2.321       .  S
Zr672      O1736   2.335       .  S
O673        H689   0.989       .  S
O674      Zr1728   2.461       .  S
O674        H688   0.987       .  S
O674       H1754   0.989       .  S
Zr675      O1723   2.521       .  S
Zr675      O1734   2.465   1_455  S
Zr675      O1737   2.341   1_455  S
Zr676      O1697   2.439       .  S
Zr676      O1712   2.360       .  S
Zr676      O1738   2.342       .  S
O677        H685   0.964       .  S
O678      Zr1731   2.448       .  S
O679      Zr1705   2.368       .  S
O680      Zr1728   2.347       .  S
O680        H684   0.964       .  S
O681      Zr1705   2.302       .  S
O681      Zr1731   2.375       .  S
O681        H686   0.962       .  S
O682      Zr1728   2.320       .  S
O682      Zr1732   2.354   1_455  S
H696       O1707   0.990       .  S
H698       O1730   0.990       .  S
C699        C701   1.599       .  S
C699        C703   1.579       .  S
C699        C702   1.649       .  S
C699        C745   1.794       .  S
C700        C704   1.564       .  S
C700        C706   1.574       .  S
C700        C705   1.525       .  S
C700        C749   1.671       .  S
C701        C709   1.392       .  A
C701        C704   1.430       .  A
C702        C713   1.394       .  A
C702        C705   1.428       .  A
C703        C717   1.368       .  A
C703        C706   1.436       .  A
C704        C707   1.387       .  A
C705        C711   1.361       .  A
C706        C714   1.388       .  A
C707        N708   1.359       .  A
C707        H720   1.082       .  S
N708        C709   1.364       .  A
N708        C764   1.423       .  S
C709        H710   1.082       .  S
C711        N712   1.342       .  A
C711        H721   1.079       .  S
N712        C713   1.368       .  A
N712        C759   1.404       .  S
C713        H719   1.082       .  S
C714        N715   1.366       .  A
C714        H716   1.082       .  S
N715        C717   1.348       .  A
N715        C761   1.406       .  S
C717        H718   1.082       .  S
C722        C724   1.569       .  S
C722        C726   1.574       .  S
C722        C725   1.540       .  S
C722        C750   1.676       .  S
C723        C727   1.549       .  S
C723        C729   1.543       .  S
C723        C728   1.560       .  S
C723        C746   1.669       .  S
C724        C732   1.380       .  A
C724        C727   1.447       .  A
C725        C736   1.369       .  A
C725        C728   1.429       .  A
C726        C740   1.390       .  A
C726        C729   1.434       .  A
C727        C730   1.368       .  A
C728        C734   1.380       .  A
C729        C737   1.369       .  A
C730        N731   1.353       .  A
C730        H743   1.083       .  S
N731        C732   1.359       .  A
N731        C757   1.400       .  S
C732        H733   1.081       .  S
C734        N735   1.360       .  A
C734        H744   1.083       .  S
N735        C736   1.348       .  A
N735        C754   1.398       .  S
C736        H742   1.082       .  S
C737        N738   1.350       .  A
C737        H739   1.083       .  S
N738        C740   1.365       .  A
N738        C756   1.407       .  S
C740        H741   1.082       .  S
C745        C746   1.433       .  D
C745        H747   0.964       .  S
C746        H748   1.086       .  S
C749       C1014   1.434       .  D
C749        H751   1.080       .  S
C750       C1013   1.432   1_554  D
C750        H752   1.085       .  S
C753        C754   1.202       .  T
C755        C756   1.210       .  T
C757        C758   1.204       .  T
C759        C760   1.209       .  T
C761        C762   1.209       .  T
C763        C764   1.224       .  T
C765        C766   1.197       .  T
C767        C768   1.197       .  T
C769        C770   1.200       .  T
C771        C772   1.206       .  T
C773        C774   1.209       .  T
C775        C776   1.226       .  T
C777        C778   1.184       .  T
C779        C780   1.186       .  T
C781        N809   1.406       .  S
C781        C782   1.211       .  T
C783        C784   1.235       .  T
C784        N806   1.436       .  S
C785        C786   1.431       .  D
C785        H787   1.080       .  S
C786        H788   1.085       .  S
C789        C790   1.449       .  D
C789        H791   0.949       .  S
C790        H792   1.086       .  S
C793        C795   1.549       .  S
C793        C797   1.583       .  S
C793        C796   1.586       .  S
C793       C1053   1.687       .  S
C794        C798   1.575       .  S
C794        C800   1.542       .  S
C794        C799   1.562       .  S
C794       C1049   1.682       .  S
C795        C803   1.367       .  A
C796        C807   1.400       .  A
C797        C811   1.394       .  A
C798        C801   1.393       .  A
C799        C805   1.383       .  A
C800        C808   1.372       .  A
C801        N802   1.368       .  A
C801        H814   1.082       .  S
N802       C1043   1.421   1_556  S
C803        H804   1.075       .  S
C805        H815   1.082       .  S
N806        C807   1.370       .  A
C807        H813   1.082       .  S
C808        H810   1.082       .  S
N809        C811   1.368       .  A
C811        H812   1.082       .  S
C816        C818   1.571       .  S
C816        C820   1.532       .  S
C816        C819   1.565       .  S
C816       C1054   1.679       .  S
C817        C821   1.564       .  S
C817        C823   1.573       .  S
C817        C822   1.544       .  S
C817       C1050   1.678       .  S
C818        C826   1.388       .  A
C818        C821   1.433       .  A
C819        C830   1.386       .  A
C819        C822   1.432       .  A
C820        C834   1.351       .  A
C820        C823   1.450       .  A
C821        C824   1.386       .  A
C822        C828   1.367       .  A
C823        C831   1.392       .  A
C824        N825   1.360       .  A
C824        H837   1.083       .  S
N825        C826   1.362       .  A
N825       C1038   1.419       .  S
C826        H827   1.082       .  S
C828        N829   1.348       .  A
C828        H838   1.082       .  S
N829        C830   1.365       .  A
N829       C1040   1.405       .  S
C830        H836   1.082       .  S
C831        N832   1.362       .  A
C831        H833   1.082       .  S
N832        C834   1.336       .  A
N832       C1042   1.391       .  S
C834        H835   1.083       .  S
O839       Zr851   2.507   1_565  S
O839        C841   1.294       .  A
O840       Zr877   2.377       .  S
O840        C841   1.270       .  A
C841       C1027   1.447       .  S
O842       Zr854   2.510       .  S
O842        C844   1.293       .  A
O843      Zr1934   2.427   1_455  S
O843        C844   1.283       .  A
C844       C1024   1.465       .  S
O845       Zr854   2.494       .  S
O845        C847   1.295       .  A
O846        C847   1.304       .  A
C847       C1047   1.467       .  S
O848       Zr851   2.483       .  S
O848       C1378   1.284       .  A
O849       Zr878   2.465       .  S
O849        C850   1.275       .  A
C850       O1376   1.275       .  A
C850       C1029   1.440       .  S
Zr851      O1909   2.422   1_545  S
Zr851      O1937   2.445   1_445  S
Zr851      O1939   2.379   1_445  S
O852        H895   0.989       .  S
O853      Zr1907   2.453   1_565  S
O853        H894   0.987       .  S
O853       H1954   0.989       .  S
Zr854       O855   2.455       .  S
Zr854       O856   2.452   1_556  S
Zr854       O858   2.240       .  S
Zr854       O857   2.397       .  S
Zr854       O882   2.386   1_455  S
Zr854       O884   2.343   1_455  S
O855        H896   0.989       .  S
O855        H899   0.990       .  S
O856        H889   0.989       .  S
O858      Zr1934   2.414   1_455  S
O858        H885   0.953       .  S
O859       Zr871   2.456       .  S
O859        C861   1.290       .  A
O860        C861   1.291       .  A
C861       C1026   1.437       .  S
O863       C1920   1.282       .  A
C864       O1919   1.285       .  A
C864       C1033   1.443       .  S
O865       Zr874   2.529       .  S
O865        C867   1.302   1_554  A
O866       Zr878   2.373       .  S
O866        C867   1.273       .  A
C867       C1044   1.457   1_556  S
O868       Zr871   2.486       .  S
O868        C870   1.292       .  A
O869      Zr1933   2.413       .  S
O869        C870   1.281       .  A
C870       C1046   1.439       .  S
Zr871       O872   2.441       .  S
Zr871       O873   2.406       .  S
Zr871       O879   2.383       .  S
Zr871       O880   2.343       .  S
Zr871       O883   2.378       .  S
Zr871       O881   2.399       .  S
O872        H892   0.990       .  S
O872        H897   0.990       .  S
O873        H893   0.990       .  S
Zr874      O1668   2.415       .  S
Zr874      O1938   2.327   1_554  S
Zr874      O1940   2.318   1_554  S
O875        H891   0.990       .  S
O876      Zr1666   2.424       .  S
O876        H890   0.989       .  S
O876       H1956   0.990       .  S
Zr877      O1925   2.399   1_455  S
Zr877      O1936   2.372   1_455  S
Zr877      O1939   2.272   1_455  S
Zr878      O1899   2.371       .  S
Zr878      O1914   2.417       .  S
Zr878      O1940   2.328       .  S
O879        H887   0.962       .  S
O880      Zr1933   2.350       .  S
O881      Zr1907   2.426   1_565  S
O882      Zr1930   2.330   1_556  S
O883      Zr1907   2.368   1_565  S
O883      Zr1933   2.310       .  S
O883        H888   0.962       .  S
O884      Zr1930   2.312   1_556  S
O884      Zr1934   2.317       .  S
H898       O1909   0.987       .  S
H900       O1932   0.987       .  S
O901       Zr913   2.445   1_455  S
O901        C903   1.281       .  A
O902       Zr939   2.371       .  S
O902        C903   1.271       .  A
C903       C1022   1.418       .  S
O904       Zr916   2.521       .  S
O904        C906   1.297       .  A
O905      Zr1996   2.460   1_455  S
O905        C906   1.289       .  A
C906       C1017   1.441       .  S
O907       Zr916   2.467       .  S
O907        C909   1.285       .  A
O908        C909   1.275       .  A
C909       C1041   1.421       .  S
O910       Zr913   2.384       .  S
O910       C1440   1.266       .  A
O911       Zr940   2.436       .  S
O911        C912   1.286       .  A
C912       O1438   1.264       .  A
C912       C1036   1.438       .  S
Zr913      O1971   2.440       .  S
Zr913      O1999   2.370       .  S
Zr913      O2001   2.281       .  S
O914        H957   0.990       .  S
O915      Zr1969   2.442       .  S
O915        H956   0.990       .  S
O915       H2016   0.990       .  S
Zr916       O917   2.437       .  S
Zr916       O918   2.446       .  S
Zr916       O920   2.359       .  S
Zr916       O919   2.442       .  S
Zr916       O944   2.249       .  S
Zr916       O946   2.374       .  S
O917        H958   0.990       .  S
O917        H961   0.990       .  S
O918        H951   0.989       .  S
O920      Zr1996   2.497   1_455  S
O920        H947   0.959       .  S
O921       Zr933   2.469       .  S
O921        C923   1.289       .  A
O922        C923   1.282       .  A
C923       C1019   1.435       .  S
O924       Zr936   2.461       .  S
O925       Zr939   2.455   1_545  S
O925       C1982   1.263       .  A
C926       O1981   1.260   1_545  A
C926       C1032   1.448       .  S
O927       Zr936   2.492       .  S
O927        C929   1.284       .  A
O928       Zr940   2.417       .  S
O928        C929   1.274       .  A
C929       C1037   1.460       .  S
O930       Zr933   2.458       .  S
O930        C932   1.289       .  A
O931      Zr1995   2.466       .  S
O931        C932   1.290       .  A
C932       C1039   1.436       .  S
Zr933       O934   2.395       .  S
Zr933       O935   2.440       .  S
Zr933       O941   2.379       .  S
Zr933       O942   2.379       .  S
Zr933       O945   2.392       .  S
Zr933       O943   2.352       .  S
O934        H954   0.988       .  S
O934        H959   0.991       .  S
O935        H955   0.990       .  S
Zr936      O1994   2.427       .  S
Zr936      O2000   2.335       .  S
Zr936      O2002   2.232       .  S
O937        H953   0.985       .  S
O938      Zr1992   2.455       .  S
O938        H952   0.990       .  S
O938       H2018   0.989       .  S
Zr939      O1987   2.477   1_455  S
Zr939      O1998   2.482   1_455  S
Zr939      O2001   2.405   1_455  S
Zr940      O1961   2.550       .  S
Zr940      O1976   2.416       .  S
Zr940      O2002   2.203       .  S
O941        H949   0.962       .  S
O942      Zr1995   2.469       .  S
O943      Zr1969   2.354       .  S
O944      Zr1992   2.347       .  S
O944        H948   0.962       .  S
O945      Zr1969   2.282       .  S
O945      Zr1995   2.402       .  S
O945        H950   0.963       .  S
O946      Zr1992   2.305       .  S
O946      Zr1996   2.312   1_455  S
H960       O1971   0.990       .  S
H962       O1994   0.989       .  S
C963        C965   1.545       .  S
C963        C967   1.543       .  S
C963        C966   1.586       .  S
C963       C1009   1.665       .  S
C964        C968   1.572       .  S
C964        C970   1.567       .  S
C964        C969   1.559       .  S
C964       C1013   1.674       .  S
C965        C973   1.378       .  A
C965        C968   1.426       .  A
C966        C977   1.398       .  A
C966        C969   1.442       .  A
C967        C981   1.368       .  A
C967        C970   1.431       .  A
C968        C971   1.391       .  A
C969        C975   1.376       .  A
C970        C978   1.389       .  A
C971        N972   1.363       .  A
C971        H984   1.082       .  S
N972        C973   1.353       .  A
N972       C1028   1.413       .  S
C973        H974   1.083       .  S
C975        N976   1.355       .  A
C975        H985   1.082       .  S
N976        C977   1.371       .  A
N976       C1023   1.423       .  S
C977        H983   1.082       .  S
C978        N979   1.366       .  A
C978        H980   1.082       .  S
N979        C981   1.347       .  A
N979       C1025   1.406       .  S
C981        H982   1.083       .  S
C986        C988   1.553       .  S
C986        C990   1.566       .  S
C986        C989   1.558       .  S
C986       C1014   1.670       .  S
C987        C991   1.553       .  S
C987        C993   1.539       .  S
C987        C992   1.556       .  S
C987       C1010   1.664       .  S
C988        C996   1.373       .  A
C988        C991   1.453       .  A
C989       C1000   1.382       .  A
C989        C992   1.427       .  A
C990       C1004   1.384       .  A
C990        C993   1.432       .  A
C991        C994   1.373       .  A
C992        C998   1.379       .  A
C993       C1001   1.368       .  A
C994        N995   1.350       .  A
C994       H1007   1.083       .  S
N995        C996   1.348       .  A
N995       C1021   1.392       .  S
C996        H997   1.081       .  S
C998        N999   1.356       .  A
C998       H1008   1.082       .  S
N999       C1000   1.357       .  A
N999       C1018   1.407       .  S
C1000      H1006   1.081       .  S
C1001      N1002   1.351       .  A
C1001      H1003   1.082       .  S
N1002      C1004   1.362       .  A
N1002      C1020   1.402       .  S
C1004      H1005   1.083       .  S
C1009      C1010   1.419       .  D
C1009      H1011   1.086       .  S
C1010      H1012   1.083       .  S
C1013      H1015   1.081   1_556  S
C1014      H1016   1.085       .  S
C1017      C1018   1.210       .  T
C1019      C1020   1.206       .  T
C1021      C1022   1.197       .  T
C1023      C1024   1.224       .  T
C1025      C1026   1.209       .  T
C1027      C1028   1.215       .  T
C1029      C1030   1.205       .  T
C1031      C1032   1.204       .  T
C1033      C1034   1.202       .  T
C1035      C1036   1.197       .  T
C1037      C1038   1.221       .  T
C1039      C1040   1.209       .  T
C1041      C1042   1.198       .  T
C1043      C1044   1.222       .  T
C1045      C1046   1.209       .  T
C1047      C1048   1.225       .  T
C1049      C1050   1.431       .  D
C1049      H1051   1.081       .  S
C1050      H1052   1.085       .  S
C1053      C1054   1.449       .  D
C1053      H1055   1.084       .  S
C1054      H1056   1.071       .  S
C1057      C1059   1.554       .  S
C1057      C1061   1.569       .  S
C1057      C1060   1.585       .  S
C1057      C1317   1.698       .  S
C1058      C1062   1.533       .  S
C1058      C1064   1.523       .  S
C1058      C1063   1.572       .  S
C1058      C1313   1.666       .  S
C1059      C1067   1.373       .  A
C1059      C1326   1.442   1_554  A
C1060      C1071   1.396       .  A
C1060      C1327   1.437   1_554  A
C1061      C1075   1.384       .  A
C1061      C1328   1.441   1_554  A
C1062      C1323   1.438       .  A
C1062      C1065   1.361       .  A
C1063      C1324   1.437       .  A
C1063      C1069   1.389       .  A
C1064      C1325   1.436       .  A
C1064      C1072   1.355       .  A
C1065      N1066   1.348       .  A
C1065      H1078   1.083       .  S
N1066      C1331   1.354       .  A
N1066      C1307   1.385       .  S
C1067      N1330   1.354   1_554  A
C1067      H1068   1.083       .  S
C1069      N1334   1.362       .  A
C1069      H1079   1.082       .  S
N1070      C1333   1.363       .  A
N1070      C1071   1.366   1_556  A
N1070      C1576   1.430       .  S
C1071      H1077   1.082       .  S
C1072      N1337   1.342       .  A
C1072      H1074   1.083       .  S
N1073      C1336   1.342       .  A
N1073      C1075   1.363   1_556  A
N1073      C1573   1.391       .  S
C1075      H1076   1.082       .  S
C1080      C1082   1.570       .  S
C1080      C1084   1.545       .  S
C1080      C1083   1.590       .  S
C1080      C1318   1.705       .  S
C1081      C1085   1.551       .  S
C1081      C1087   1.543       .  S
C1081      C1086   1.548       .  S
C1081      C1314   1.672       .  S
C1082      C1090   1.386       .  A
C1082      C1085   1.435       .  A
C1083      C1094   1.399       .  A
C1083      C1086   1.435       .  A
C1084      C1098   1.358       .  A
C1084      C1087   1.458       .  A
C1085      C1088   1.375       .  A
C1086      C1092   1.374       .  A
C1087      C1095   1.370       .  A
C1088      N1089   1.354       .  A
C1088      H1101   1.083       .  S
N1089      C1090   1.364       .  A
N1089      C1302   1.410       .  S
C1090      H1091   1.082       .  S
C1092      N1093   1.352       .  A
C1092      H1102   1.083       .  S
N1093      C1094   1.372       .  A
N1093      C1304   1.421       .  S
C1094      H1100   1.082       .  S
C1095      N1096   1.340       .  A
C1095      H1097   1.079       .  S
N1096      C1098   1.336       .  A
N1096      C1306   1.370       .  S
C1098      H1099   1.079       .  S
O1103     Zr1115   2.467       .  S
O1103      C1105   1.289       .  A
O1104     Zr1141   2.475       .  S
O1104      C1105   1.288       .  A
C1105      C1291   1.469       .  S
O1106     Zr1118   2.469       .  S
O1106      C1108   1.289       .  A
O1107      C1108   1.282       .  A
C1108      C1288   1.430       .  S
O1109     Zr1118   2.467       .  S
O1109      C1111   1.291       .  A
O1110     Zr1669   2.492   1_545  S
O1110      C1111   1.297       .  A
C1111      C1311   1.477       .  S
O1112     Zr1115   2.502       .  S
O1113     Zr1142   2.432   1_455  S
O1113      C1114   1.259       .  A
C1114      C1293   1.441       .  S
Zr1115     O1644   2.460       .  S
Zr1115     O1649   2.287       .  S
Zr1115     O1650   2.341       .  S
O1116     Zr1643   2.444       .  S
O1116      H1159   0.990       .  S
O1117      H1158   0.987   1_455  S
Zr1118     O1119   2.451       .  S
Zr1118     O1120   2.436       .  S
Zr1118     O1122   2.278       .  S
Zr1118     O1146   2.390       .  S
Zr1118     O1148   2.384       .  S
Zr1118     O1121   2.296       .  S
O1119      H1160   0.982       .  S
O1119      H1163   0.989       .  S
O1120      H1153   0.991       .  S
O1121     Zr1643   2.237       .  S
O1121     Zr1669   2.189   1_545  S
O1122     Zr1643   2.346       .  S
O1122      H1149   0.955       .  S
O1123     Zr1135   2.451       .  S
O1123      C1125   1.290       .  A
O1124     Zr1670   2.469       .  S
O1124      C1125   1.291       .  A
C1125      C1290   1.434       .  S
O1126     Zr1402   2.508       .  S
O1126      C1656   1.283       .  A
O1127     Zr1405   2.366       .  S
C1128      O1654   1.292       .  A
C1128      C1297   1.444       .  S
O1129     Zr1138   2.432       .  S
O1129      C1131   1.278       .  A
O1130     Zr1142   2.390       .  S
O1130      C1131   1.275       .  A
C1131      C1308   1.410       .  S
O1132     Zr1135   2.469       .  S
O1132      C1134   1.290       .  A
O1133      C1134   1.277       .  A
C1134      C1310   1.419       .  S
Zr1135     O1136   2.440       .  S
Zr1135     O1137   2.396       .  S
Zr1135     O1143   2.382       .  S
Zr1135     O1144   2.347       .  S
Zr1135     O1147   2.390       .  S
Zr1135     O1145   2.376       .  S
O1136      H1156   0.990       .  S
O1136      H1161   0.990       .  S
O1137      H1157   0.991       .  S
Zr1138     O1390   2.406   1_545  S
Zr1138     O1931   2.397       .  S
Zr1138     O1672   2.373       .  S
Zr1138     O1671   2.300       .  S
O1139     Zr1930   2.430       .  S
O1139      H1155   0.991       .  S
O1140      H1154   0.988       .  S
Zr1141     O1638   2.499       .  S
Zr1141     O1391   2.461       .  S
Zr1141     O1649   2.279       .  S
Zr1141     O1674   2.493       .  S
Zr1142     O1652   2.515       .  S
Zr1142     O1671   2.390       .  S
Zr1142     O1673   2.459       .  S
O1143     Zr1666   2.266       .  S
O1143     Zr1670   2.399       .  S
O1143      H1151   0.963       .  S
O1144     Zr1666   2.373       .  S
O1145     Zr1670   2.456       .  S
O1146     Zr1669   2.488   1_545  S
O1146      H1414   0.952       .  S
O1147      H1152   0.963       .  S
H1150      O1410   0.953       .  S
O1165     Zr1177   2.447       .  S
O1165      C1167   1.284       .  A
O1166     Zr1203   2.444       .  S
O1166      C1167   1.286       .  A
C1167      C1286   1.438       .  S
O1168     Zr1180   2.457       .  S
O1168      C1170   1.288       .  A
O1169      C1170   1.294       .  A
C1170      C1281   1.439       .  S
O1171     Zr1180   2.419       .  S
O1171      C1173   1.279       .  A
O1172     Zr1731   2.386   1_545  S
O1172      C1173   1.277       .  A
C1173      C1305   1.391       .  S
O1174     Zr1177   2.394       .  S
O1175     Zr1204   2.412   1_455  S
O1175      C1176   1.240       .  A
C1176      C1300   1.426       .  S
Zr1177     O1706   2.531       .  S
Zr1177     O1711   2.328       .  S
Zr1177     O1712   2.378       .  S
O1178     Zr1705   2.429   1_545  S
O1178      H1221   0.991   1_545  S
O1179      H1220   0.991       .  S
Zr1180     O1181   2.424       .  S
Zr1180     O1182   2.439       .  S
Zr1180     O1184   2.367       .  S
Zr1180     O1183   2.410       .  S
Zr1180     O1208   2.313       .  S
Zr1180     O1210   2.361       .  S
O1181      H1222   0.989       .  S
O1181      H1225   0.990       .  S
O1182      H1215   0.990       .  S
O1183     Zr1705   2.307   1_545  S
O1183     Zr1731   2.388   1_545  S
O1184     Zr1705   2.400   1_545  S
O1184      H1211   0.955       .  S
O1185     Zr1197   2.449       .  S
O1185      C1187   1.284       .  A
O1186     Zr1732   2.454       .  S
O1186      C1187   1.286       .  A
C1187      C1283   1.452       .  S
O1188     Zr1200   2.536       .  S
O1188      C1718   1.298       .  A
O1189     Zr1203   2.427       .  S
C1190      O1716   1.291       .  A
C1190      C1296   1.443       .  S
O1191     Zr1200   2.486   1_655  S
O1191      C1193   1.294       .  A
O1192     Zr1204   2.407       .  S
O1192      C1193   1.279       .  A
C1193      C1301   1.445       .  S
O1194     Zr1197   2.495       .  S
O1194      C1196   1.296       .  A
O1195      C1196   1.305       .  A
C1196      C1303   1.459       .  S
Zr1197     O1198   2.423       .  S
Zr1197     O1199   2.444       .  S
Zr1197     O1205   2.396       .  S
Zr1197     O1206   2.421       .  S
Zr1197     O1209   2.357       .  S
Zr1197     O1207   2.390       .  S
O1198      H1218   0.990       .  S
O1198      H1223   0.989       .  S
O1199      H1219   0.990       .  S
Zr1200     O1729   2.408   1_455  S
Zr1200     O1734   2.422   1_445  S
Zr1200     O1733   2.347   1_455  S
O1201     Zr1728   2.416   1_655  S
O1201      H1217   0.985       .  S
O1202      H1216   0.990       .  S
Zr1203     O1700   2.393       .  S
Zr1203     O1711   2.376       .  S
Zr1203     O1736   2.488       .  S
Zr1204     O1714   2.416   1_545  S
Zr1204     O1733   2.321       .  S
Zr1204     O1735   2.440   1_545  S
O1205     Zr1728   2.360   1_655  S
O1205     Zr1732   2.312       .  S
O1205      H1213   0.964       .  S
O1206     Zr1728   2.420   1_655  S
O1207     Zr1732   2.445       .  S
O1208     Zr1731   2.466   1_545  S
O1208      H1212   0.961       .  S
O1209      H1214   0.950       .  S
C1227      C1229   1.577       .  S
C1227      C1231   1.547       .  S
C1227      C1230   1.564       .  S
C1227      C1273   1.678       .  S
C1228      C1232   1.571       .  S
C1228      C1234   1.570       .  S
C1228      C1233   1.535       .  S
C1228      C1277   1.679       .  S
C1229      C1237   1.393       .  A
C1229      C1232   1.433       .  A
C1230      C1241   1.384       .  A
C1230      C1233   1.436       .  A
C1231      C1245   1.371       .  A
C1231      C1234   1.439       .  A
C1232      C1235   1.392       .  A
C1233      C1239   1.360       .  A
C1234      C1242   1.383       .  A
C1235      N1236   1.362       .  A
C1235      H1248   1.082       .  S
N1236      C1237   1.363       .  A
N1236      C1292   1.426       .  S
C1237      H1238   1.082       .  S
C1239      N1240   1.347       .  A
C1239      H1249   1.083       .  S
N1240      C1241   1.363       .  A
N1240      C1287   1.397       .  S
C1241      H1247   1.082       .  S
C1242      N1243   1.364       .  A
C1242      H1244   1.083       .  S
N1243      C1245   1.352       .  A
N1243      C1289   1.404       .  S
C1245      H1246   1.083       .  S
C1250      C1252   1.578       .  S
C1250      C1254   1.579       .  S
C1250      C1253   1.554       .  S
C1250      C1278   1.703       .  S
C1251      C1255   1.554       .  S
C1251      C1257   1.548       .  S
C1251      C1256   1.563       .  S
C1251      C1274   1.684       .  S
C1252      C1260   1.386       .  A
C1252      C1255   1.453       .  A
C1253      C1264   1.374       .  A
C1253      C1256   1.435       .  A
C1254      C1268   1.393       .  A
C1254      C1257   1.435       .  A
C1255      C1258   1.371       .  A
C1256      C1262   1.383       .  A
C1257      C1265   1.374       .  A
C1258      N1259   1.350       .  A
C1258      H1271   1.080       .  S
N1259      C1260   1.362       .  A
N1259      C1285   1.405       .  S
C1260      H1261   1.082       .  S
C1262      N1263   1.361       .  A
C1262      H1272   1.083       .  S
N1263      C1264   1.353       .  A
N1263      C1282   1.406       .  S
C1264      H1270   1.082       .  S
C1265      N1266   1.353       .  A
C1265      H1267   1.083       .  S
N1266      C1268   1.365       .  A
N1266      C1284   1.413       .  S
C1268      H1269   1.082       .  S
C1273      C1274   1.439       .  D
C1273      H1275   1.079       .  S
C1274      H1276   1.085       .  S
C1277      C1542   1.443       .  D
C1277      H1279   1.079       .  S
C1278      C1541   1.452   1_554  D
C1278      H1280   1.085       .  S
C1281      C1282   1.209       .  T
C1283      C1284   1.216       .  T
C1285      C1286   1.208       .  T
C1287      C1288   1.202       .  T
C1289      C1290   1.208       .  T
C1291      C1292   1.226       .  T
C1293      C1294   1.197       .  T
C1294      C1823   1.389       .  S
C1295      C1296   1.199       .  T
C1295      C1822   1.394       .  S
C1297      C1298   1.206   1_655  T
C1298      C1827   1.424       .  S
C1299      C1300   1.204       .  T
C1299      C1826   1.422   1_545  S
C1301      C1302   1.213       .  T
C1303      C1304   1.222       .  T
C1305      C1306   1.179       .  T
C1307      C1308   1.191       .  T
C1309      N1337   1.391       .  S
C1309      C1310   1.197       .  T
C1311      C1312   1.229       .  T
C1312      N1334   1.428       .  S
C1313      C1314   1.435       .  D
C1313      H1315   1.079       .  S
C1314      H1316   1.085       .  S
C1317      C1318   1.459       .  D
C1317      H1319   1.076       .  S
C1318      H1320   1.084       .  S
C1321      C1323   1.558       .  S
C1321      C1325   1.570       .  S
C1321      C1324   1.580       .  S
C1321      C1581   1.689       .  S
C1322      C1326   1.558       .  S
C1322      C1328   1.529       .  S
C1322      C1327   1.574       .  S
C1322      C1577   1.686       .  S
C1323      C1331   1.373       .  A
C1324      C1335   1.394       .  A
C1325      C1339   1.384       .  A
C1326      C1329   1.377       .  A
C1327      C1333   1.391       .  A
C1328      C1336   1.354       .  A
C1329      N1330   1.359       .  A
C1329      H1342   1.083       .  S
N1330      C1571   1.401       .  S
C1331      H1332   1.079       .  S
C1333      H1343   1.082       .  S
N1334      C1335   1.366       .  A
C1335      H1341   1.082       .  S
C1336      H1338   1.083       .  S
N1337      C1339   1.362       .  A
C1339      H1340   1.082       .  S
C1344      C1346   1.571       .  S
C1344      C1348   1.532       .  S
C1344      C1347   1.575       .  S
C1344      C1582   1.688       .  S
C1345      C1349   1.569       .  S
C1345      C1351   1.562       .  S
C1345      C1350   1.568       .  S
C1345      C1578   1.687       .  S
C1346      C1354   1.388       .  A
C1346      C1349   1.434       .  A
C1347      C1358   1.390       .  A
C1347      C1350   1.442       .  A
C1348      C1362   1.356       .  A
C1348      C1351   1.439       .  A
C1349      C1352   1.389       .  A
C1350      C1356   1.383       .  A
C1351      C1359   1.382       .  A
C1352      N1353   1.363       .  A
C1352      H1365   1.082       .  S
N1353      C1354   1.361       .  A
N1353      C1566   1.422       .  S
C1354      H1355   1.082       .  S
C1356      N1357   1.358       .  A
C1356      H1366   1.083       .  S
N1357      C1358   1.366       .  A
N1357      C1568   1.419       .  S
C1358      H1364   1.082       .  S
C1359      N1360   1.360       .  A
C1359      H1361   1.081       .  S
N1360      C1362   1.344       .  A
N1360      C1570   1.390       .  S
C1362      H1363   1.083       .  S
O1367     Zr1379   2.551       .  S
O1367      C1369   1.295       .  A
O1368     Zr1405   2.324       .  S
O1368      C1369   1.259       .  A
C1369      C1555   1.440       .  S
O1370     Zr1382   2.488       .  S
O1370      C1372   1.290       .  A
O1371      C1372   1.280       .  A
C1372      C1552   1.442       .  S
O1373     Zr1382   2.444       .  S
O1373      C1375   1.280       .  A
O1374     Zr1933   2.504       .  S
O1374      C1375   1.295   1_565  A
C1375      C1575   1.475   1_556  S
O1376     Zr1379   2.466       .  S
O1377     Zr1406   2.438   1_455  S
O1377      C1378   1.260       .  A
C1378      C1557   1.442       .  S
Zr1379     O1908   2.461       .  S
Zr1379     O1913   2.258       .  S
Zr1379     O1914   2.355       .  S
O1380     Zr1907   2.444       .  S
O1380      H1423   0.986       .  S
O1381      H1422   0.986   1_455  S
Zr1382     O1383   2.453       .  S
Zr1382     O1384   2.419   1_556  S
Zr1382     O1386   2.285       .  S
Zr1382     O1410   2.479   1_546  S
Zr1382     O1412   2.392       .  S
Zr1382     O1385   2.272       .  S
O1383      H1424   0.988       .  S
O1383      H1427   0.986       .  S
O1384      H1417   0.990       .  S
O1385     Zr1907   2.236       .  S
O1385     Zr1933   2.202   1_545  S
O1386     Zr1907   2.343       .  S
O1386      H1413   0.957       .  S
O1387     Zr1399   2.457       .  S
O1387      C1389   1.289       .  A
O1388     Zr1934   2.460       .  S
O1388      C1389   1.290       .  A
C1389      C1554   1.438       .  S
O1390      C1920   1.274       .  A
C1392      O1918   1.274       .  A
C1392      C1561   1.440       .  S
O1393     Zr1402   2.473   1_546  S
O1393      C1395   1.286       .  A
O1394     Zr1406   2.390       .  S
O1394      C1395   1.274       .  A
C1395      C1572   1.432       .  S
O1396     Zr1399   2.443       .  S
O1396      C1398   1.281       .  A
O1397      C1398   1.277       .  A
C1398      C1574   1.420       .  S
Zr1399     O1400   2.439       .  S
Zr1399     O1401   2.419       .  S
Zr1399     O1407   2.377       .  S
Zr1399     O1408   2.307       .  S
Zr1399     O1411   2.412       .  S
Zr1399     O1409   2.398       .  S
O1400      H1420   0.990       .  S
O1400      H1425   0.991       .  S
O1401      H1421   0.990       .  S
Zr1402     O1667   2.434       .  S
Zr1402     O1936   2.416   1_554  S
Zr1402     O1935   2.297   1_554  S
O1403     Zr1666   2.441       .  S
O1403      H1419   0.990       .  S
O1404      H1418   0.986       .  S
Zr1405     O1902   2.490       .  S
Zr1405     O1913   2.337       .  S
Zr1405     O1938   2.335       .  S
Zr1406     O1916   2.470       .  S
Zr1406     O1935   2.434   1_545  S
Zr1406     O1937   2.465   1_545  S
O1407     Zr1930   2.296   1_556  S
O1407     Zr1934   2.431       .  S
O1407      H1415   0.963       .  S
O1408     Zr1930   2.379   1_556  S
O1409     Zr1934   2.454       .  S
O1410     Zr1933   2.382   1_554  S
O1411      H1416   0.964       .  S
O1429     Zr1441   2.428       .  S
O1429      C1431   1.277       .  A
O1430     Zr1467   2.391       .  S
O1430      C1431   1.274       .  A
C1431      C1550   1.418       .  S
O1432     Zr1444   2.466       .  S
O1432      C1434   1.290       .  A
O1433      C1434   1.297       .  A
C1434      C1545   1.476       .  S
O1435     Zr1444   2.458       .  S
O1435      C1437   1.286       .  A
O1436     Zr1995   2.405       .  S
O1436      C1437   1.279   1_565  A
C1437      C1569   1.419       .  S
O1438     Zr1441   2.379       .  S
O1439     Zr1468   2.439   1_565  S
O1439      C1440   1.286       .  A
C1440      C1564   1.438       .  S
Zr1441     O1970   2.409       .  S
Zr1441     O1975   2.347       .  S
Zr1441     O1976   2.358       .  S
O1442     Zr1969   2.408       .  S
O1442      H1485   0.990       .  S
O1443      H1484   0.991       .  S
Zr1444     O1445   2.445       .  S
Zr1444     O1446   2.436       .  S
Zr1444     O1448   2.381   1_545  S
Zr1444     O1447   2.388   1_545  S
Zr1444     O1472   2.289       .  S
Zr1444     O1474   2.305       .  S
O1445      H1486   0.990       .  S
O1445      H1489   0.988   1_545  S
O1446      H1479   0.990       .  S
O1447     Zr1969   2.336       .  S
O1447     Zr1995   2.372       .  S
O1448     Zr1969   2.357       .  S
O1448      H1475   0.955       .  S
O1449     Zr1461   2.488       .  S
O1449      C1451   1.293       .  A
O1450     Zr1996   2.461       .  S
O1450      C1451   1.286       .  A
C1451      C1547   1.445       .  S
O1452     Zr1464   2.467       .  S
O1452      C1982   1.280       .  A
O1453     Zr1467   2.391       .  S
C1454      O1980   1.285       .  A
C1454      C1560   1.442       .  S
O1455     Zr1464   2.479   1_655  S
O1455      C1457   1.292       .  A
O1456     Zr1468   2.447       .  S
O1456      C1457   1.286       .  A
C1457      C1565   1.464       .  S
O1458     Zr1461   2.455       .  S
O1458      C1460   1.287       .  A
O1459      C1460   1.301   1_455  A
C1460      C1567   1.456       .  S
Zr1461     O1462   2.387       .  S
Zr1461     O1463   2.438       .  S
Zr1461     O1469   2.376       .  S
Zr1461     O1470   2.366       .  S
Zr1461     O1473   2.396       .  S
Zr1461     O1471   2.365       .  S
O1462      H1482   0.987       .  S
O1462      H1487   0.991       .  S
O1463      H1483   0.990       .  S
Zr1464     O1993   2.428   1_455  S
Zr1464     O1998   2.427   1_445  S
Zr1464     O1997   2.352   1_445  S
O1465     Zr1992   2.457   1_655  S
O1465      H1481   0.989       .  S
O1466      H1480   0.990       .  S
Zr1467     O1964   2.403       .  S
Zr1467     O1975   2.405       .  S
Zr1467     O2000   2.396       .  S
Zr1468     O1978   2.422   1_545  S
Zr1468     O1997   2.313   1_545  S
Zr1468     O1999   2.339   1_545  S
O1469     Zr1992   2.338   1_655  S
O1469     Zr1996   2.339       .  S
O1469      H1477   0.962       .  S
O1470     Zr1992   2.418   1_655  S
O1471     Zr1996   2.329       .  S
O1472     Zr1995   2.458   1_545  S
O1472      H1476   0.960       .  S
O1473      H1478   0.958       .  S
C1491      C1493   1.541       .  S
C1491      C1495   1.547       .  S
C1491      C1494   1.572       .  S
C1491      C1537   1.676       .  S
C1492      C1496   1.585       .  S
C1492      C1498   1.571       .  S
C1492      C1497   1.554       .  S
C1492      C1541   1.701       .  S
C1493      C1501   1.374       .  A
C1493      C1496   1.434       .  A
C1494      C1505   1.386       .  A
C1494      C1497   1.446       .  A
C1495      C1509   1.368       .  A
C1495      C1498   1.438       .  A
C1496      C1499   1.393       .  A
C1497      C1503   1.369       .  A
C1498      C1506   1.388       .  A
C1499      N1500   1.368       .  A
C1499      H1512   1.082       .  S
N1500      C1501   1.348       .  A
N1500      C1556   1.412       .  S
C1501      H1502   1.083       .  S
C1503      N1504   1.352       .  A
C1503      H1513   1.082       .  S
N1504      C1505   1.364       .  A
N1504      C1551   1.407       .  S
C1505      H1511   1.082       .  S
C1506      N1507   1.366       .  A
C1506      H1508   1.082       .  S
N1507      C1509   1.349       .  A
N1507      C1553   1.406       .  S
C1509      H1510   1.083       .  S
C1514      C1516   1.550       .  S
C1514      C1518   1.580       .  S
C1514      C1517   1.576       .  S
C1514      C1542   1.682       .  S
C1515      C1519   1.546       .  S
C1515      C1521   1.537       .  S
C1515      C1520   1.573       .  S
C1515      C1538   1.672       .  S
C1516      C1524   1.373       .  A
C1516      C1519   1.438       .  A
C1517      C1528   1.394       .  A
C1517      C1520   1.434       .  A
C1518      C1532   1.392       .  A
C1518      C1521   1.435       .  A
C1519      C1522   1.369       .  A
C1520      C1526   1.390       .  A
C1521      C1529   1.367       .  A
C1522      N1523   1.352       .  A
C1522      H1535   1.083       .  S
N1523      C1524   1.350       .  A
N1523      C1549   1.390       .  S
C1524      H1525   1.080       .  S
C1526      N1527   1.363       .  A
C1526      H1536   1.082       .  S
N1527      C1528   1.366       .  A
N1527      C1546   1.429       .  S
C1528      H1534   1.082       .  S
C1529      N1530   1.349       .  A
C1529      H1531   1.083       .  S
N1530      C1532   1.367       .  A
N1530      C1548   1.408       .  S
C1532      H1533   1.082       .  S
C1537      C1538   1.430       .  D
C1537      H1539   1.085       .  S
C1538      H1540   1.084       .  S
C1541      H1543   1.083       .  S
C1542      H1544   1.085       .  S
C1545      C1546   1.229       .  T
C1547      C1548   1.212       .  T
C1549      C1550   1.196       .  T
C1551      C1552   1.210       .  T
C1553      C1554   1.210       .  T
C1555      C1556   1.214       .  T
C1557      C1558   1.202       .  T
C1558      C2087   1.397       .  S
C1559      C1560   1.198       .  T
C1559      C2086   1.393       .  S
C1561      C1562   1.200       .  T
C1562      C2091   1.399       .  S
C1563      C1564   1.198       .  T
C1563      C2090   1.396       .  S
C1565      C1566   1.223       .  T
C1567      C1568   1.220       .  T
C1569      C1570   1.196       .  T
C1571      C1572   1.205       .  T
C1573      C1574   1.197       .  T
C1575      C1576   1.230   1_554  T
C1577      C1578   1.444       .  D
C1577      H1579   1.082       .  S
C1578      H1580   1.085       .  S
C1581      C1582   1.447       .  D
C1581      H1583   1.085       .  S
C1582      H1584   1.078       .  S
C1585      C1587   1.617       .  S
C1585      C1589   1.623       .  S
C1585      C1588   1.598       .  S
C1585      C1845   1.811       .  S
C1586      C1590   1.545       .  S
C1586      C1592   1.540       .  S
C1586      C1591   1.567       .  S
C1586      C1841   1.658       .  S
C1587      C1595   1.377       .  A
C1587      C1854   1.442   1_554  A
C1588      C1599   1.391       .  A
C1588      C1855   1.435   1_554  A
C1589      C1603   1.382       .  A
C1589      C1856   1.433   1_554  A
C1590      C1851   1.441       .  A
C1590      C1593   1.369       .  A
C1591      C1852   1.427       .  A
C1591      C1597   1.387       .  A
C1592      C1853   1.433       .  A
C1592      C1600   1.372       .  A
C1593      N1594   1.350       .  A
C1593      H1606   1.083       .  S
N1594      C1859   1.349       .  A
N1594      C1835   1.391       .  S
C1595      N1858   1.354   1_554  A
C1595      H1596   1.083       .  S
C1597      N1862   1.361       .  A
C1597      H1607   1.082       .  S
N1598      C1861   1.351   1_554  A
N1598      C1599   1.363       .  A
N1598      C2104   1.411       .  S
C1599      H1605   1.082       .  S
C1600      N1865   1.352       .  A
C1600      H1602   1.083       .  S
N1601      C1864   1.347       .  A
N1601      C1603   1.360   1_556  A
N1601      C2101   1.398       .  S
C1603      H1604   1.082       .  S
C1608      C1610   1.558       .  S
C1608      C1612   1.537       .  S
C1608      C1611   1.585       .  S
C1608      C1846   1.681       .  S
C1609      C1613   1.552       .  S
C1609      C1615   1.553       .  S
C1609      C1614   1.541       .  S
C1609      C1842   1.662       .  S
C1610      C1618   1.378       .  A
C1610      C1613   1.433       .  A
C1611      C1622   1.396       .  A
C1611      C1614   1.434       .  A
C1612      C1626   1.356       .  A
C1612      C1615   1.442       .  A
C1613      C1616   1.375       .  A
C1614      C1620   1.369       .  A
C1615      C1623   1.373       .  A
C1616      N1617   1.355       .  A
C1616      H1629   1.083       .  S
N1617      C1618   1.359       .  A
N1617      C1830   1.403       .  S
C1618      H1619   1.083       .  S
C1620      N1621   1.348       .  A
C1620      H1630   1.083       .  S
N1621      C1622   1.370       .  A
N1621      C1832   1.413       .  S
C1622      H1628   1.082       .  S
C1623      N1624   1.354       .  A
C1623      H1625   1.081       .  S
N1624      C1626   1.345       .  A
N1624      C1834   1.381       .  S
C1626      H1627   1.083       .  S
O1631     Zr1643   2.496   1_565  S
O1631      C1633   1.294       .  A
O1632     Zr1669   2.472       .  S
O1632      C1633   1.287       .  A
C1633      C1819   1.483       .  S
O1634     Zr1646   2.454       .  S
O1634      C1636   1.283       .  A
O1635      C1636   1.273       .  A
C1636      C1816   1.409       .  S
O1637     Zr1646   2.485       .  S
O1637      C1639   1.292       .  A
O1638      C1639   1.298       .  A
C1639      C1839   1.458       .  S
O1640     Zr1643   2.478       .  S
O1641     Zr1670   2.454   1_455  S
O1641      C1642   1.262       .  A
C1642      C1821   1.441       .  S
O1644      H1687   0.990       .  S
O1645      H1686   0.980   1_455  S
Zr1646     O1647   2.444       .  S
Zr1646     O1648   2.416       .  S
Zr1646     O1650   2.289       .  S
Zr1646     O1649   2.358       .  S
Zr1646     O1674   2.367       .  S
Zr1646     O1676   2.402       .  S
O1647      H1688   0.990       .  S
O1647      H1691   0.990       .  S
O1648      H1681   0.990       .  S
O1650      H1677   0.961       .  S
O1651     Zr1663   2.452       .  S
O1651      C1653   1.284       .  A
O1652      C1653   1.296   1_545  A
C1653      C1818   1.460       .  S
O1654     Zr1930   2.529       .  S
O1655     Zr1933   2.432   1_554  S
C1656      C1825   1.446       .  S
O1657     Zr1666   2.440       .  S
O1657      C1659   1.279       .  A
O1658     Zr1670   2.381       .  S
O1658      C1659   1.273       .  A
C1659      C1836   1.418       .  S
O1660     Zr1663   2.482       .  S
O1660      C1662   1.291       .  A
O1661      C1662   1.291       .  A
C1662      C1838   1.454       .  S
Zr1663     O1664   2.443       .  S
Zr1663     O1665   2.400       .  S
Zr1663     O1671   2.380   1_565  S
Zr1663     O1672   2.388   1_565  S
Zr1663     O1675   2.377   1_655  S
Zr1663     O1673   2.364   1_565  S
O1664      H1684   0.990       .  S
O1664      H1689   0.990       .  S
O1665      H1685   0.990       .  S
Zr1666     O1918   2.401       .  S
O1667      H1683   0.990       .  S
O1668      H1682   0.990       .  S
Zr1669     O1919   2.414       .  S
O1671      H1679   0.961   1_545  S
O1674      H1942   0.959       .  S
O1675      H1680   0.963   1_455  S
H1678      O1938   0.893   1_554  S
O1693     Zr1705   2.423       .  S
O1693      C1695   1.276       .  A
O1694     Zr1731   2.379       .  S
O1694      C1695   1.273       .  A
C1695      C1814   1.407       .  S
O1696     Zr1708   2.449       .  S
O1696      C1698   1.287       .  A
O1697      C1698   1.287       .  A
C1698      C1809   1.430       .  S
O1699     Zr1708   2.426       .  S
O1699      C1701   1.283       .  A
O1700      C1701   1.277       .  A
C1701      C1833   1.404       .  S
O1702     Zr1705   2.398       .  S
O1703     Zr1732   2.414   1_455  S
O1703      C1704   1.249       .  A
C1704      C1828   1.436       .  S
O1706      H1749   1.003       .  S
O1707      H1748   0.989       .  S
Zr1708     O1709   2.438       .  S
Zr1708     O1710   2.441       .  S
Zr1708     O1712   2.325       .  S
Zr1708     O1711   2.404       .  S
Zr1708     O1736   2.234       .  S
Zr1708     O1738   2.401       .  S
O1709      H1750   0.990       .  S
O1709      H1753   0.990       .  S
O1710      H1743   0.990       .  S
O1712      H1739   0.939       .  S
O1713     Zr1725   2.435       .  S
O1713      C1715   1.282       .  A
O1714      C1715   1.279       .  A
C1715      C1811   1.428       .  S
O1716     Zr1728   2.510       .  S
O1717     Zr1731   2.419   1_545  S
C1718      C1824   1.442       .  S
O1719     Zr1728   2.457   1_655  S
O1719      C1721   1.288       .  A
O1720     Zr1732   2.411       .  S
O1720      C1721   1.280       .  A
C1721      C1829   1.436       .  S
O1722     Zr1725   2.479       .  S
O1722      C1724   1.294       .  A
O1723      C1724   1.300   1_455  A
C1724      C1831   1.447       .  S
Zr1725     O1726   2.437       .  S
Zr1725     O1727   2.440       .  S
Zr1725     O1733   2.382   1_565  S
Zr1725     O1734   2.415       .  S
Zr1725     O1737   2.366       .  S
Zr1725     O1735   2.399       .  S
O1726      H1746   0.990       .  S
O1726      H1751   0.990       .  S
O1727      H1747   0.990       .  S
O1729      H1745   0.986       .  S
O1730      H1744   0.989       .  S
O1733      H1741   0.964       .  S
O1736      H1740   0.963       .  S
O1737      H1742   0.955       .  S
C1755      C1757   1.576       .  S
C1755      C1759   1.549       .  S
C1755      C1758   1.552       .  S
C1755      C1801   1.680       .  S
C1756      C1760   1.586       .  S
C1756      C1762   1.591       .  S
C1756      C1761   1.540       .  S
C1756      C1805   1.710       .  S
C1757      C1765   1.392       .  A
C1757      C1760   1.440       .  A
C1758      C1769   1.381       .  A
C1758      C1761   1.441       .  A
C1759      C1773   1.376       .  A
C1759      C1762   1.437       .  A
C1760      C1763   1.398       .  A
C1761      C1767   1.352       .  A
C1762      C1770   1.400       .  A
C1763      N1764   1.369       .  A
C1763      H1776   1.082       .  S
N1764      C1765   1.364       .  A
N1764      C1820   1.435       .  S
C1765      H1766   1.082       .  S
C1767      N1768   1.336       .  A
C1767      H1777   1.071       .  S
N1768      C1769   1.352       .  A
N1768      C1815   1.381       .  S
C1769      H1775   1.079       .  S
C1770      N1771   1.372       .  A
C1770      H1772   1.082       .  S
N1771      C1773   1.352       .  A
N1771      C1817   1.422       .  S
C1773      H1774   1.083       .  S
C1778      C1780   1.537       .  S
C1778      C1782   1.557       .  S
C1778      C1781   1.536       .  S
C1778      C1806   1.657       .  S
C1779      C1783   1.550       .  S
C1779      C1785   1.551       .  S
C1779      C1784   1.574       .  S
C1779      C1802   1.675       .  S
C1780      C1788   1.362       .  A
C1780      C1783   1.438       .  A
C1781      C1792   1.368       .  A
C1781      C1784   1.434       .  A
C1782      C1796   1.375       .  A
C1782      C1785   1.437       .  A
C1783      C1786   1.367       .  A
C1784      C1790   1.382       .  A
C1785      C1793   1.375       .  A
C1786      N1787   1.354       .  A
C1786      H1799   1.083       .  S
N1787      C1788   1.349       .  A
N1787      C1813   1.384       .  S
C1788      H1789   1.083       .  S
C1790      N1791   1.361       .  A
C1790      H1800   1.082       .  S
N1791      C1792   1.351       .  A
N1791      C1810   1.401       .  S
C1792      H1798   1.082       .  S
C1793      N1794   1.356       .  A
C1793      H1795   1.083       .  S
N1794      C1796   1.352       .  A
N1794      C1812   1.398       .  S
C1796      H1797   1.082       .  S
C1801      C1802   1.438       .  D
C1801      H1803   1.085       .  S
C1802      H1804   1.078       .  S
C1805      C2070   1.465       .  D
C1805      H1807   1.084       .  S
C1806      C2069   1.425       .  D
C1806      H1808   1.085       .  S
C1809      C1810   1.205       .  T
C1811      C1812   1.202       .  T
C1813      C1814   1.190       .  T
C1815      C1816   1.190       .  T
C1817      C1818   1.223       .  T
C1819      C1820   1.234       .  T
C1821      C1822   1.199       .  T
C1823      C1824   1.197       .  T
C1825      C1826   1.206   1_655  T
C1827      C1828   1.205       .  T
C1829      C1830   1.207       .  T
C1831      C1832   1.215       .  T
C1833      C1834   1.188       .  T
C1835      C1836   1.196       .  T
C1837      N1865   1.415       .  S
C1837      C1838   1.217       .  T
C1839      C1840   1.221       .  T
C1840      N1862   1.420       .  S
C1841      C1842   1.424       .  D
C1841      H1843   1.080       .  S
C1842      H1844   1.085       .  S
C1845      C1846   1.447       .  D
C1845      H1847   0.957       .  S
C1846      H1848   1.086       .  S
C1849      C1851   1.554       .  S
C1849      C1853   1.583       .  S
C1849      C1852   1.561       .  S
C1849      C2109   1.670       .  S
C1850      C1854   1.569       .  S
C1850      C1856   1.535       .  S
C1850      C1855   1.554       .  S
C1850      C2105   1.683       .  S
C1851      C1859   1.377       .  A
C1852      C1863   1.387       .  A
C1853      C1867   1.395       .  A
C1854      C1857   1.386       .  A
C1855      C1861   1.375       .  A
C1856      C1864   1.365       .  A
C1857      N1858   1.363       .  A
C1857      H1870   1.082       .  S
N1858      C2099   1.411       .  S
C1859      H1860   1.079       .  S
C1861      H1871   1.082       .  S
N1862      C1863   1.361       .  A
C1863      H1869   1.082       .  S
C1864      H1866   1.079       .  S
N1865      C1867   1.369       .  A
C1867      H1868   1.082       .  S
C1872      C1874   1.560       .  S
C1872      C1876   1.538       .  S
C1872      C1875   1.558       .  S
C1872      C2110   1.666       .  S
C1873      C1877   1.562       .  S
C1873      C1879   1.600       .  S
C1873      C1878   1.550       .  S
C1873      C2106   1.681       .  S
C1874      C1882   1.383       .  A
C1874      C1877   1.428       .  A
C1875      C1886   1.382       .  A
C1875      C1878   1.432       .  A
C1876      C1890   1.363       .  A
C1876      C1879   1.442       .  A
C1877      C1880   1.386       .  A
C1878      C1884   1.371       .  A
C1879      C1887   1.406       .  A
C1880      N1881   1.360       .  A
C1880      H1893   1.082       .  S
N1881      C1882   1.356       .  A
N1881      C2094   1.413       .  S
C1882      H1883   1.082       .  S
C1884      N1885   1.348       .  A
C1884      H1894   1.080       .  S
N1885      C1886   1.362       .  A
N1885      C2096   1.402       .  S
C1886      H1892   1.082       .  S
C1887      N1888   1.377       .  A
C1887      H1889   1.082       .  S
N1888      C1890   1.345       .  A
N1888      C2098   1.418       .  S
C1890      H1891   1.083       .  S
O1895     Zr1907   2.464   1_565  S
O1895      C1897   1.289       .  A
O1896     Zr1933   2.433       .  S
O1896      C1897   1.284       .  A
C1897      C2083   1.450       .  S
O1898     Zr1910   2.486       .  S
O1898      C1900   1.288       .  A
O1899      C1900   1.273       .  A
C1900      C2080   1.426       .  S
O1901     Zr1910   2.510       .  S
O1901      C1903   1.297       .  A
O1902      C1903   1.297       .  A
C1903      C2103   1.448   1_556  S
O1904     Zr1907   2.510       .  S
O1905     Zr1934   2.436   1_455  S
O1905      C1906   1.263       .  A
C1906      C2085   1.442       .  S
O1908      H1951   0.985       .  S
O1909      H1950   0.983   1_455  S
Zr1910     O1911   2.458       .  S
Zr1910     O1912   2.450   1_556  S
Zr1910     O1914   2.249       .  S
Zr1910     O1913   2.369       .  S
Zr1910     O1938   2.396       .  S
Zr1910     O1940   2.344       .  S
O1911      H1952   0.988       .  S
O1911      H1955   0.989       .  S
O1912      H1945   0.990       .  S
O1914      H1941   0.955       .  S
O1915     Zr1927   2.449       .  S
O1915      C1917   1.289       .  A
O1916      C1917   1.292   1_545  A
C1917      C2082   1.439       .  S
C1920      C2089   1.441       .  S
O1921     Zr1930   2.512       .  S
O1921      C1923   1.292   1_554  A
O1922     Zr1934   2.371       .  S
O1922      C1923   1.269       .  A
C1923      C2100   1.443       .  S
O1924     Zr1927   2.471       .  S
O1924      C1926   1.288       .  A
O1925      C1926   1.280       .  A
C1926      C2102   1.428       .  S
Zr1927     O1928   2.437       .  S
Zr1927     O1929   2.409       .  S
Zr1927     O1935   2.378       .  S
Zr1927     O1936   2.301       .  S
Zr1927     O1939   2.402       .  S
Zr1927     O1937   2.401       .  S
O1928      H1948   0.989       .  S
O1928      H1953   0.991       .  S
O1929      H1949   0.990       .  S
O1931      H1947   0.990       .  S
O1932      H1946   0.990       .  S
O1935      H1943   0.962       .  S
O1939      H1944   0.964       .  S
O1957     Zr1969   2.419       .  S
O1957      C1959   1.277       .  A
O1958     Zr1995   2.383       .  S
O1958      C1959   1.275       .  A
C1959      C2078   1.407       .  S
O1960     Zr1972   2.463       .  S
O1960      C1962   1.282       .  A
O1961      C1962   1.307       .  A
C1962      C2073   1.505       .  S
O1963     Zr1972   2.525       .  S
O1963      C1965   1.300       .  A
O1964      C1965   1.280       .  A
C1965      C2097   1.460       .  S
O1966     Zr1969   2.385       .  S
O1967     Zr1996   2.425       .  S
O1967      C1968   1.278       .  A
C1968      C2092   1.447       .  S
O1970      H2013   0.990       .  S
O1971      H2012   0.991       .  S
Zr1972     O1973   2.396       .  S
Zr1972     O1974   2.457       .  S
Zr1972     O1976   2.455       .  S
Zr1972     O1975   2.421       .  S
Zr1972     O2000   2.219       .  S
Zr1972     O2002   2.294       .  S
O1973      H2014   0.985       .  S
O1973      H2017   0.991       .  S
O1974      H2007   0.989       .  S
O1976      H2003   0.938       .  S
O1977     Zr1989   2.464       .  S
O1977      C1979   1.287       .  A
O1978      C1979   1.277       .  A
C1979      C2075   1.426       .  S
O1980     Zr1992   2.491       .  S
O1981     Zr1995   2.442       .  S
C1982      C2088   1.441       .  S
O1983     Zr1992   2.460   1_655  S
O1983      C1985   1.286       .  A
O1984     Zr1996   2.441       .  S
O1984      C1985   1.283       .  A
C1985      C2093   1.450       .  S
O1986     Zr1989   2.452       .  S
O1986      C1988   1.288       .  A
O1987      C1988   1.289       .  A
C1988      C2095   1.430       .  S
Zr1989     O1990   2.414       .  S
Zr1989     O1991   2.440       .  S
Zr1989     O1997   2.380       .  S
Zr1989     O1998   2.378       .  S
Zr1989     O2001   2.397       .  S
Zr1989     O1999   2.345       .  S
O1990      H2010   0.989       .  S
O1990      H2015   0.991       .  S
O1991      H2011   0.990       .  S
O1993      H2009   0.985   1_545  S
O1994      H2008   0.986       .  S
O1997      H2005   0.964       .  S
O2000      H2004   0.944       .  S
O2001      H2006   0.964       .  S
C2019      C2021   1.564       .  S
C2019      C2023   1.555       .  S
C2019      C2022   1.570       .  S
C2019      C2065   1.676       .  S
C2020      C2024   1.604       .  S
C2020      C2026   1.614       .  S
C2020      C2025   1.556       .  S
C2020      C2069   1.777   1_556  S
C2021      C2029   1.387       .  A
C2021      C2024   1.428       .  A
C2022      C2033   1.388       .  A
C2022      C2025   1.440       .  A
C2023      C2037   1.376       .  A
C2023      C2026   1.430       .  A
C2024      C2027   1.377       .  A
C2025      C2031   1.359       .  A
C2026      C2034   1.380       .  A
C2027      N2028   1.356       .  A
C2027      H2040   1.083       .  S
N2028      C2029   1.362       .  A
N2028      C2084   1.412       .  S
C2029      H2030   1.082       .  S
C2031      N2032   1.342       .  A
C2031      H2041   1.083       .  S
N2032      C2033   1.365       .  A
N2032      C2079   1.397       .  S
C2033      H2039   1.082       .  S
C2034      N2035   1.360       .  A
C2034      H2036   1.083       .  S
N2035      C2037   1.354       .  A
N2035      C2081   1.407       .  S
C2037      H2038   1.082       .  S
C2042      C2044   1.544       .  S
C2042      C2046   1.563       .  S
C2042      C2045   1.604       .  S
C2042      C2070   1.693       .  S
C2043      C2047   1.542       .  S
C2043      C2049   1.532       .  S
C2043      C2048   1.581       .  S
C2043      C2066   1.675       .  S
C2044      C2052   1.367       .  A
C2044      C2047   1.443       .  A
C2045      C2056   1.410       .  A
C2045      C2048   1.437       .  A
C2046      C2060   1.383       .  A
C2046      C2049   1.434       .  A
C2047      C2050   1.366       .  A
C2048      C2054   1.398       .  A
C2049      C2057   1.361       .  A
C2050      N2051   1.349       .  A
C2050      H2063   1.083       .  S
N2051      C2052   1.349       .  A
N2051      C2077   1.383       .  S
C2052      H2053   1.083       .  S
C2054      N2055   1.367       .  A
C2054      H2064   1.082       .  S
N2055      C2056   1.376       .  A
N2055      C2074   1.450       .  S
C2056      H2062   1.082       .  S
C2057      N2058   1.346       .  A
C2057      H2059   1.083       .  S
N2058      C2060   1.362       .  A
N2058      C2076   1.395       .  S
C2060      H2061   1.082       .  S
C2065      C2066   1.435       .  D
C2065      H2067   1.085       .  S
C2066      H2068   1.083       .  S
C2069      H2071   0.980   1_554  S
C2070      H2072   1.070       .  S
C2073      C2074   1.247       .  T
C2075      C2076   1.201       .  T
C2077      C2078   1.190       .  T
C2079      C2080   1.202       .  T
C2081      C2082   1.210       .  T
C2083      C2084   1.215       .  T
C2085      C2086   1.199       .  T
C2087      C2088   1.198       .  T
C2089      C2090   1.203       .  T
C2091      C2092   1.203       .  T
C2093      C2094   1.215       .  T
C2095      C2096   1.205       .  T
C2097      C2098   1.222       .  T
C2099      C2100   1.213       .  T
C2101      C2102   1.203       .  T
C2103      C2104   1.214       .  T
C2105      C2106   1.431       .  D
C2105      H2107   1.082       .  S
C2106      H2108   1.085       .  S
C2109      C2110   1.432       .  D
C2109      H2111   1.085       .  S
C2110      H2112   1.076       .  S
