geometry optimzed in LAMMPS
_audit_creation_date              2020-11-30 
_audit_creation_method            'lammps2cif' 
_symmetry_space_group_name_H-M    'P1' 
_symmetry_Int_Tables_number       1 
_symmetry_cell_setting            triclinic 
loop_ 
_symmetry_equiv_pos_as_xyz 
  x,y,z 
_cell_length_a                    44.49423232 
_cell_length_b                    44.44925500886929 
_cell_length_c                    44.17928405510578 
_cell_angle_alpha                 86.10374160676355 
_cell_angle_beta                  102.50483102585464 
_cell_angle_gamma                 120.1465016998832 
loop_ 
_atom_site_label 
_atom_site_type_symbol 
_atom_site_fract_x 
_atom_site_fract_y 
_atom_site_fract_z 
_atom_site_charge 
Zr1        Zr  0.51087187  0.47176922  0.96060762     2.17500
O2          O  0.48470819  0.42454918  0.92126906    -0.51800
O3          O  0.57271132  0.48774456  0.96700478    -0.75100
O4          O  0.52083014  0.49448554  0.90988753    -0.81800
O5          O  0.48797315  0.40344258  0.02103702    -0.83600
O6          O  0.51186684  0.54075730  0.90533809    -0.79200
O7          O  0.50781527  0.41737161  0.97599147    -0.90800
O8          O  0.60356619  0.52770738  0.00735926    -0.76800
O9          O  0.54285486  0.53317507  0.97057723    -0.86300
O10         O  0.53351922  0.48075423  0.01522870    -0.86000
O11         O  0.46768008  0.48975940  0.94276081    -0.72700
O12         O  0.46036656  0.44151556  0.98430015    -0.84900
Zr13       Zr  0.47298411  0.53144613  0.03251985     2.26400
Zr14       Zr  0.49994764  0.55139527  0.95397678     2.06300
Zr15       Zr  0.48329486  0.45131550  0.03896421     2.10000
Zr16       Zr  0.56486748  0.54203872  0.02520160     1.78800
O17         O  0.42898828  0.39967838  0.04732100    -0.93700
O18         O  0.60895855  0.59645667  0.00764122    -0.41500
O19         O  0.51558183  0.51289259  0.05007643    -0.78100
O20         O  0.52357908  0.56223065  0.00888241    -0.96800
O21         O  0.44981620  0.52232837  0.97808269    -0.90100
O22         O  0.44061295  0.46992956  0.02275862    -0.93000
C23         C  0.60146809  0.50808402  0.98620437     1.00800
C24         C  0.49825022  0.39713908  0.99836275     1.13700
C25         C  0.51861292  0.51912076  0.89449765     1.04500
O26         O  0.55123860  0.60682246  0.94676681    -0.95100
O27         O  0.49221110  0.59827124  0.96947057    -0.90900
O28         O  0.47660540  0.58605366  0.01634521    -0.84000
C29         C  0.48392761  0.60538181  0.99310990     1.11100
O30         O  0.39299171  0.41753141  0.92538586    -0.97100
Zr31       Zr  0.41849344  0.46105855  0.96806408     1.88900
O32         O  0.41093812  0.51426651  0.02713372    -0.73700
O33         O  0.45934947  0.55804209  0.91096391    -0.53000
O34         O  0.38686213  0.47702012  0.92372191    -0.97700
O35         O  0.37521074  0.40328714  0.98103884    -0.54900
O36         O  0.37876194  0.47287897  0.98791512    -0.74300
C37         C  0.38162674  0.49332630  0.00885199     0.98100
O38         O  0.49115976  0.57277462  0.07560527    -0.63100
O39         O  0.52156609  0.43661988  0.07742815    -0.57900
O40         O  0.47466932  0.51428516  0.08569885    -0.94600
O41         O  0.48147179  0.46673889  0.09035674    -0.93000
O42         O  0.59744985  0.53013766  0.07174908    -0.93300
O43         O  0.59322046  0.58821455  0.06577842    -0.92100
C44         C  0.47864069  0.49088675  0.10174294     1.16900
H45         H  0.54905589  0.47124881  0.02203637     0.32900
H46         H  0.53578983  0.58685076  0.01428934     0.43700
H47         H  0.42179135  0.45879004  0.03415840     0.37300
H48         H  0.45848892  0.48462327  0.92071267     0.33700
H49         H  0.60615069  0.59184792  0.98529814     0.25500
H50         H  0.47497067  0.57788235  0.89974603     0.31500
H51         H  0.39312376  0.50106544  0.92896950     0.37400
H52         H  0.62193106  0.54015614  0.06838299     0.31800
H53         H  0.53777551  0.45814045  0.09072341     0.30700
H54         H  0.42103881  0.40721753  0.06308474     0.32400
H55         H  0.37323413  0.40624453  0.00239284     0.31400
H56         H  0.57358167  0.58507249  0.07514417     0.35400
H57         H  0.51254592  0.59421300  0.07170409     0.28100
H58         H  0.50391511  0.42932130  0.91052556     0.32300
H59         H  0.36785516  0.41160526  0.91850908     0.35200
H60         H  0.50586358  0.42011491  0.09079805     0.27800
H61         H  0.47241703  0.57914654  0.07311545     0.40700
H62         H  0.55927502  0.60248472  0.92917045     0.30700
H63         H  0.60008255  0.61284219  0.00801293     0.38300
H64         H  0.38751882  0.38962238  0.98330040     0.30200
H65         H  0.44940577  0.53742266  0.89675015     0.30200
H66         H  0.46738542  0.42837288  0.90573958     0.30500
Zr67       Zr  0.52133630  0.47902094  0.46230293     2.17500
O68         O  0.50866604  0.43493428  0.42390066    -0.51800
O69         O  0.58472477  0.49910333  0.47090301    -0.75100
O70         O  0.52483305  0.50000096  0.40971708    -0.81800
O71         O  0.49977704  0.41192093  0.52453614    -0.83600
O72         O  0.51171618  0.54353981  0.40350659    -0.79200
O73         O  0.51500508  0.42309818  0.47747255    -0.90800
O74         O  0.61433834  0.54256507  0.50836600    -0.76800
O75         O  0.54834014  0.54035923  0.46992296    -0.86300
O76         O  0.54466234  0.49101850  0.51683606    -0.86000
O77         O  0.47372141  0.49106176  0.44390037    -0.72700
O78         O  0.47152183  0.44620023  0.48682474    -0.84900
Zr79       Zr  0.47620825  0.53471399  0.53189551     2.26400
Zr80       Zr  0.50098619  0.55285653  0.45282144     2.06300
Zr81       Zr  0.49493114  0.46000887  0.54137339     2.10000
Zr82       Zr  0.57143360  0.55243808  0.52425042     1.78800
O83         O  0.44262178  0.41066271  0.55555292    -0.93700
O84         O  0.61191622  0.60789962  0.50514558    -0.41500
O85         O  0.52291862  0.52167974  0.54995382    -0.78100
O86         O  0.52601930  0.56735826  0.50724458    -0.96800
O87         O  0.45176371  0.52144650  0.47780058    -0.90100
O88         O  0.44804433  0.47302456  0.52449042    -0.93000
C89         C  0.61330283  0.52186160  0.48888546     1.00800
C90         C  0.50702476  0.40388019  0.50073971     1.13700
C91         C  0.51964095  0.52262373  0.39321461     1.04500
O92         O  0.54897554  0.60715549  0.43918613    -0.95100
O93         O  0.49278714  0.60000373  0.46647081    -0.90900
O94         O  0.48287364  0.59058895  0.51536571    -0.84000
C95         C  0.48768067  0.60873311  0.49120675     1.11100
O96         O  0.39856494  0.41884004  0.42516203    -0.97100
Zr97       Zr  0.42528121  0.46008332  0.46999390     1.88900
O98         O  0.41271906  0.51247888  0.52474639    -0.73700
O99         O  0.45309224  0.55264037  0.41359706    -0.53000
O100        O  0.38803632  0.46914184  0.42536229    -0.97700
O101        O  0.38955787  0.40171820  0.48749595    -0.54900
O102        O  0.38240225  0.46753209  0.48879880    -0.74300
C103        C  0.38383246  0.48870469  0.50802872     0.98100
O104        O  0.47527336  0.56905136  0.57221246    -0.63100
O105        O  0.53234516  0.44784572  0.58336782    -0.57900
O106        O  0.48787633  0.52438523  0.58712258    -0.94600
O107        O  0.49659686  0.47806632  0.59267965    -0.93000
O108        O  0.60489431  0.54429212  0.57234913    -0.93300
O109        O  0.59842103  0.60117663  0.56209888    -0.92100
C110        C  0.49393413  0.50237391  0.60382057     1.16900
H111        H  0.56161677  0.48325920  0.52424730     0.32900
H112        H  0.53737055  0.59212362  0.51151739     0.43700
H113        H  0.42973067  0.46118365  0.53639071     0.37300
H114        H  0.46415070  0.48465386  0.42204129     0.33700
H115        H  0.61149747  0.60233093  0.48368479     0.25500
H116        H  0.46526341  0.57116208  0.39962444     0.31500
H117        H  0.36352032  0.45567802  0.42899635     0.37400
H118        H  0.58669552  0.52491719  0.58204280     0.31800
H119        H  0.51665019  0.42369349  0.58874980     0.30700
H120        H  0.44705372  0.39089440  0.55625966     0.32400
H121        H  0.38338887  0.40529313  0.50665314     0.31400
H122        H  0.57951947  0.60679393  0.56206967     0.35400
H123        H  0.49795734  0.59149415  0.57471377     0.28100
H124        H  0.52987250  0.44472226  0.41457676     0.32300
H125        H  0.37765689  0.39779737  0.43027341     0.35200
H126        H  0.54970042  0.44636304  0.57372313     0.27800
H127        H  0.45652115  0.57490379  0.56327182     0.40700
H128        H  0.53745702  0.62040625  0.42897410     0.30700
H129        H  0.59967151  0.62163614  0.50254167     0.38300
H130        H  0.40635311  0.39300349  0.49462111     0.30200
H131        H  0.44235190  0.53063421  0.40108866     0.30200
H132        H  0.48936820  0.43392160  0.40708011     0.30500
Zr133      Zr  0.94122047  0.47262643  0.03253888     2.17500
O134        O  0.90955630  0.42697027  0.06633779    -0.51800
O135        O  0.89571201  0.48896545  0.02577350    -0.75100
O136        O  0.95941424  0.49313636  0.08711134    -0.81800
O137        O  0.89492703  0.40780129  0.96276738    -0.83600
O138        O  0.01516078  0.54026049  0.09593973    -0.79200
O139        O  0.89141215  0.41574347  0.01184958    -0.90800
O140        O  0.90939093  0.53302729  0.99264057    -0.76800
O141        O  0.97528569  0.53452787  0.03102725    -0.86300
O142        O  0.92962626  0.48563797  0.97942648    -0.86000
O143        O  0.00207965  0.48750816  0.05206932    -0.72700
O144        O  0.95960539  0.44252385  0.00448205    -0.84900
Zr145      Zr  0.04362067  0.53321797  0.96792889     2.26400
Zr146      Zr  0.03632131  0.54964279  0.04835907     2.06300
Zr147      Zr  0.94912509  0.45668940  0.95164481     2.10000
Zr148      Zr  0.96406077  0.54734345  0.97805873     1.78800
O149        O  0.94831318  0.40488209  0.93569547    -0.93700
O150        O  0.97497850  0.59938057  0.00454142    -0.41500
O151        O  0.98285847  0.51863521  0.94897428    -0.78100
O152        O  0.02553859  0.56427809  0.99544983    -0.96800
O153        O  0.05539389  0.52023625  0.02075191    -0.90100
O154        O  0.00978380  0.47150778  0.96973020    -0.93000
C155        C  0.88940572  0.51115193  0.00983265     1.00800
C156        C  0.87963127  0.39793435  0.98598251     1.13700
C157        C  0.98694986  0.51747839  0.10494637     1.04500
O158        O  0.04651944  0.60624452  0.06343205    -0.95100
O159        O  0.09343797  0.59605077  0.03966686    -0.90900
O160        O  0.09648024  0.58712421  0.99073017    -0.84000
C161        C  0.10932095  0.60461339  0.01681920     1.11100
O162        O  0.99217969  0.40374866  0.04785190    -0.97100
Zr163      Zr  0.02065286  0.45883695  0.02292524     1.88900
O164        O  0.08836541  0.51570557  0.97439074    -0.73700
O165        O  0.08112115  0.55021266  0.09165910    -0.53000
O166        O  0.05564545  0.46585060  0.07538563    -0.97700
O167        O  0.01734262  0.40796109  0.00107556    -0.54900
O168        O  0.07858741  0.47790401  0.01306993    -0.74300
C169        C  0.09716139  0.49717338  0.99378868     0.98100
O170        O  0.07046023  0.57332777  0.92871304    -0.63100
O171        O  0.89998862  0.44797683  0.90889171    -0.57900
O172        O  0.02576422  0.51614836  0.91284819    -0.94600
O173        O  0.96857640  0.47172939  0.90294737    -0.93000
O174        O  0.92474419  0.54239880  0.92847335    -0.93300
O175        O  0.98465690  0.59800418  0.94623631    -0.92100
C176        C  0.99720101  0.49412870  0.89429679     1.16900
H177        H  0.90460613  0.47705990  0.97137026     0.32900
H178        H  0.03966205  0.58908042  0.99355250     0.43700
H179        H  0.01669440  0.46046490  0.95671174     0.37300
H180        H  0.00540671  0.48114316  0.07334229     0.33700
H181        H  0.95655749  0.60450550  0.99275538     0.25500
H182        H  0.09819130  0.54832034  0.08190399     0.31500
H183        H  0.07342781  0.45938399  0.07332832     0.37400
H184        H  0.90513955  0.51791704  0.92651982     0.31800
H185        H  0.88154875  0.44688634  0.91879829     0.30700
H186        H  0.92775577  0.39427077  0.91794498     0.32400
H187        H  0.04151745  0.41109770  0.00767429     0.31400
H188        H  0.01059117  0.61213294  0.95444021     0.35400
H189        H  0.07320607  0.59581744  0.93458444     0.28100
H190        H  0.89566782  0.43479385  0.07490084     0.32300
H191        H  0.96926654  0.40096158  0.05012541     0.35200
H192        H  0.90870986  0.47028400  0.89833546     0.27800
H193        H  0.09499472  0.57739654  0.93216081     0.40700
H194        H  0.02267105  0.60228082  0.06391535     0.30700
H195        H  0.96779155  0.59151074  0.02462338     0.38300
H196        H  0.01405259  0.41038214  0.97835232     0.30200
H197        H  0.09433039  0.57431940  0.10082023     0.30200
H198        H  0.92778725  0.42784776  0.08425249     0.30500
Zr199      Zr  0.94495189  0.47451567  0.53030894     2.17500
O200        O  0.91008359  0.42861992  0.56241803    -0.51800
O201        O  0.90389271  0.49645139  0.52445676    -0.75100
O202        O  0.96133067  0.49203329  0.58554575    -0.81800
O203        O  0.89855582  0.41137264  0.45823306    -0.83600
O204        O  0.01796235  0.53753055  0.59685120    -0.79200
O205        O  0.89329947  0.41981879  0.50651300    -0.90800
O206        O  0.91893376  0.53934642  0.49015951    -0.76800
O207        O  0.98048368  0.53626329  0.52915702    -0.86300
O208        O  0.93620532  0.48837019  0.47718909    -0.86000
O209        O  0.00502308  0.48771376  0.55172203    -0.72700
O210        O  0.96279739  0.44300708  0.50334889    -0.84900
Zr211      Zr  0.05120317  0.53298094  0.46971017     2.26400
Zr212      Zr  0.04060680  0.54974545  0.54920958     2.06300
Zr213      Zr  0.95556353  0.45841362  0.45053737     2.10000
Zr214      Zr  0.97254300  0.54979816  0.47602305     1.78800
O215        O  0.95563732  0.40713557  0.43449104    -0.93700
O216        O  0.98939254  0.60509173  0.50053613    -0.41500
O217        O  0.99146837  0.52009138  0.44865358    -0.78100
O218        O  0.03306336  0.56498526  0.49598672    -0.96800
O219        O  0.05945424  0.51902912  0.52270141    -0.90100
O220        O  0.01543232  0.47120615  0.47058622    -0.93000
C221        C  0.89887739  0.51918923  0.50815442     1.00800
C222        C  0.88171971  0.40234244  0.48043090     1.13700
C223        C  0.98870148  0.51493310  0.60463566     1.04500
O224        O  0.04430918  0.60353241  0.56389573    -0.95100
O225        O  0.09800165  0.59664749  0.54142900    -0.90900
O226        O  0.10268342  0.58752664  0.49319116    -0.84000
C227        C  0.11449541  0.60537827  0.51897388     1.11100
O228        O  0.99421978  0.41118051  0.55808918    -0.97100
Zr229      Zr  0.02304101  0.45758461  0.52387220     1.88900
O230        O  0.09290374  0.51152669  0.47744161    -0.73700
O231        O  0.08837940  0.55486003  0.59167554    -0.53000
O232        O  0.06432378  0.46640432  0.57316561    -0.97700
O233        O  0.00851783  0.40089592  0.50411508    -0.54900
O234        O  0.07703010  0.46760266  0.51074773    -0.74300
C235        C  0.09782094  0.48870007  0.49368452     0.98100
O236        O  0.08601005  0.57059870  0.43283729    -0.63100
O237        O  0.90976908  0.45269523  0.40559289    -0.57900
O238        O  0.03207396  0.52108753  0.41349153    -0.94600
O239        O  0.97556872  0.47551869  0.40251597    -0.93000
O240        O  0.93168499  0.54330312  0.42699963    -0.93300
O241        O  0.99576791  0.59732714  0.44131154    -0.92100
C242        C  0.00386383  0.49932309  0.39438067     1.16900
H243        H  0.91147157  0.48085137  0.46852148     0.32900
H244        H  0.04735812  0.58978299  0.49408557     0.43700
H245        H  0.02225792  0.45945160  0.45821807     0.37300
H246        H  0.00754742  0.48075623  0.57287363     0.33700
H247        H  0.97158118  0.61122932  0.48917977     0.25500
H248        H  0.09066710  0.57136753  0.60716982     0.31500
H249        H  0.08492522  0.48993184  0.57247227     0.37400
H250        H  0.93633225  0.53062214  0.41271559     0.31800
H251        H  0.89577868  0.42757206  0.39932621     0.30700
H252        H  0.93311810  0.39437032  0.41898173     0.32400
H253        H  0.02409654  0.40592278  0.48930298     0.31400
H254        H  0.00493331  0.58929651  0.42701739     0.35400
H255        H  0.08772621  0.59343519  0.43528029     0.28100
H256        H  0.90015340  0.43861252  0.57401270     0.32300
H257        H  0.01031024  0.40161538  0.56501577     0.35200
H258        H  0.89345503  0.45743015  0.41378579     0.27800
H259        H  0.11048355  0.57478775  0.44057408     0.40700
H260        H  0.06954202  0.61892983  0.57397132     0.30700
H261        H  0.98364017  0.59921103  0.52133482     0.38300
H262        H  0.98434912  0.39137687  0.49094376     0.30200
H263        H  0.07832771  0.53206784  0.60139300     0.30200
H264        H  0.92749144  0.42521860  0.57825842     0.30500
Zr265      Zr  0.47887845  0.95192708  0.04075826     2.17500
O266        O  0.50801286  0.93040430  0.08232217    -0.51800
O267        O  0.41792263  0.90498511  0.03786111    -0.75100
O268        O  0.47377260  0.96576921  0.09155899    -0.81800
O269        O  0.49462717  0.90924383  0.97924102    -0.83600
O270        O  0.48158255  0.02042664  0.09061653    -0.79200
O271        O  0.48135655  0.90109003  0.02704774    -0.90800
O272        O  0.38252932  0.91471203  0.99790360    -0.76800
O273        O  0.44617504  0.98188636  0.02997471    -0.86300
O274        O  0.45148865  0.94042663  0.98699627    -0.86000
O275        O  0.52234994  0.01241863  0.05271921    -0.72700
O276        O  0.52656903  0.97372088  0.01347609    -0.84900
Zr277      Zr  0.50829078  0.05287849  0.95896441     2.26400
Zr278      Zr  0.48942686  0.04232787  0.03995837     2.06300
Zr279      Zr  0.49866978  0.96299799  0.95977159     2.10000
Zr280      Zr  0.41876497  0.97013750  0.97644928     1.78800
O281        O  0.55034538  0.96301893  0.94974320    -0.93700
O282        O  0.37820007  0.98080184  0.99712035    -0.41500
O283        O  0.46517632  0.99225749  0.94793441    -0.78100
O284        O  0.46046778  0.03115949  0.98627127    -0.96800
O285        O  0.53641134  0.06499209  0.01244797    -0.90100
O286        O  0.54161811  0.02339506  0.96995358    -0.93000
C287        C  0.38761844  0.89620523  0.01985195     1.00800
C288        C  0.48767120  0.89149205  0.00344475     1.13700
C289        C  0.47643657  0.99244051  0.10438233     1.04500
O290        O  0.44235007  0.04859430  0.05294563    -0.95100
O291        O  0.49267953  0.09592942  0.02136628    -0.90900
O292        O  0.50512193  0.10308673  0.97334817    -0.84000
C293        C  0.49900352  0.11307247  0.99680491     1.11100
O294        O  0.60290877  0.01624451  0.06301496    -0.97100
Zr295      Zr  0.56834945  0.03456603  0.02387063     1.88900
O296        O  0.56985583  0.09828998  0.96084989    -0.73700
O297        O  0.53623064  0.08764661  0.07785136    -0.53000
O298        O  0.59958722  0.07586326  0.06863755    -0.97700
O299        O  0.61222152  0.02544894  0.00755814    -0.54900
O300        O  0.60424036  0.08904365  0.00201261    -0.74300
C301        C  0.59988840  0.10692968  0.97928929     0.98100
O302        O  0.48660743  0.07739621  0.91427262    -0.63100
O303        O  0.45876604  0.91640952  0.92014173    -0.57900
O304        O  0.50268155  0.03558750  0.90579836    -0.94600
O305        O  0.49892694  0.98270578  0.90767553    -0.93000
O306        O  0.38498248  0.93070946  0.93074648    -0.93300
O307        O  0.38499305  0.98902961  0.93701149    -0.92100
C308        C  0.49933615  0.00866245  0.89291882     1.16900
H309        H  0.43620969  0.91575999  0.98193567     0.32900
H310        H  0.44755545  0.04356625  0.98082821     0.43700
H311        H  0.55908153  0.03105837  0.95722557     0.37300
H312        H  0.53335590  0.01608015  0.07454708     0.33700
H313        H  0.35419887  0.96445597  0.98502289     0.25500
H314        H  0.55234054  0.10547111  0.06548357     0.31500
H315        H  0.60837012  0.09924533  0.06003034     0.37400
H316        H  0.38638192  0.90941532  0.93623796     0.31800
H317        H  0.44401731  0.89615111  0.93147253     0.30700
H318        H  0.54229966  0.95180410  0.92870572     0.32400
H319        H  0.61929202  0.04089996  0.99012582     0.31400
H320        H  0.40323186  0.01071165  0.92962121     0.35400
H321        H  0.46612838  0.07786916  0.91911729     0.28100
H322        H  0.48910353  0.91401758  0.09318221     0.32300
H323        H  0.59172412  0.01123650  0.08120105     0.35200
H324        H  0.44192774  0.92359529  0.90844836     0.27800
H325        H  0.50532670  0.10215261  0.91463254     0.40700
H326        H  0.42217145  0.03747734  0.03499302     0.30700
H327        H  0.37846585  0.97158552  0.01815962     0.38300
H328        H  0.59852192  0.00161967  0.99781366     0.30200
H329        H  0.52446944  0.09875896  0.08525399     0.30200
H330        H  0.52408541  0.95051984  0.09727452     0.30500
Zr331      Zr  0.48293564  0.95516189  0.54113326     2.17500
O332        O  0.51384489  0.93665996  0.58406596    -0.51800
O333        O  0.42212968  0.90729985  0.53748749    -0.75100
O334        O  0.47342947  0.96533700  0.59094140    -0.81800
O335        O  0.49718681  0.91246012  0.47911233    -0.83600
O336        O  0.48135788  0.01998862  0.59169556    -0.79200
O337        O  0.48503779  0.90415529  0.52730776    -0.90800
O338        O  0.38648289  0.91844536  0.49900094    -0.76800
O339        O  0.44953038  0.98444429  0.53077801    -0.86300
O340        O  0.45584480  0.94425385  0.48726906    -0.86000
O341        O  0.52560821  0.01592362  0.55382483    -0.72700
O342        O  0.53136026  0.97824085  0.51446473    -0.84900
Zr343      Zr  0.51138943  0.05678038  0.46053913     2.26400
Zr344      Zr  0.49173832  0.04487397  0.54197873     2.06300
Zr345      Zr  0.50356192  0.96757002  0.46065467     2.10000
Zr346      Zr  0.42265727  0.97360762  0.47714092     1.78800
O347        O  0.55765553  0.97198680  0.45149372    -0.93700
O348        O  0.37955860  0.98319944  0.49433560    -0.41500
O349        O  0.46917990  0.99601704  0.44879627    -0.78100
O350        O  0.46367558  0.03450702  0.48807140    -0.96800
O351        O  0.53887203  0.06864714  0.51430877    -0.90100
O352        O  0.54553568  0.02821366  0.47123961    -0.93000
C353        C  0.39160894  0.89926047  0.52022498     1.00800
C354        C  0.49032258  0.89438839  0.50316641     1.13700
C355        C  0.47505709  0.99109638  0.60429838     1.04500
O356        O  0.44044370  0.04599652  0.55163186    -0.95100
O357        O  0.49786434  0.10015843  0.52498173    -0.90900
O358        O  0.50700425  0.10609878  0.47575237    -0.84000
C359        C  0.50263676  0.11675552  0.49995145     1.11100
O360        O  0.60514627  0.02476537  0.56909746    -0.97100
Zr361      Zr  0.57211244  0.03956078  0.52515293     1.88900
O362        O  0.57255726  0.10224316  0.46122131    -0.73700
O363        O  0.53451351  0.09001743  0.58181337    -0.53000
O364        O  0.60597609  0.08310259  0.56804121    -0.97700
O365        O  0.61425790  0.02702323  0.50990658    -0.54900
O366        O  0.60839714  0.09310979  0.50111096    -0.74300
C367        C  0.60321774  0.11080812  0.47840722     0.98100
O368        O  0.48855490  0.08057804  0.41600311    -0.63100
O369        O  0.46877020  0.92188803  0.41950813    -0.57900
O370        O  0.50742429  0.04019762  0.40741024    -0.94600
O371        O  0.49917830  0.98544946  0.40798984    -0.93000
O372        O  0.38733079  0.93384345  0.43186293    -0.93300
O373        O  0.39229626  0.99707391  0.43914392    -0.92100
C374        C  0.50165815  0.01247152  0.39386124     1.16900
H375        H  0.44057407  0.91965100  0.48189351     0.32900
H376        H  0.45061592  0.04679466  0.48280959     0.43700
H377        H  0.56296475  0.03635298  0.45844096     0.37300
H378        H  0.53632680  0.01918895  0.57571456     0.33700
H379        H  0.35691217  0.96080711  0.48942363     0.25500
H380        H  0.52003489  0.09147547  0.59519203     0.31500
H381        H  0.60376736  0.10358993  0.56069574     0.37400
H382        H  0.40387499  0.92809768  0.42537011     0.31800
H383        H  0.48271768  0.91025896  0.41911964     0.30700
H384        H  0.55249443  0.96656078  0.42895473     0.32400
H385        H  0.61455991  0.03385233  0.48813220     0.31400
H386        H  0.41021703  0.01256156  0.42701340     0.35400
H387        H  0.46663385  0.07844354  0.42028308     0.28100
H388        H  0.49488501  0.91795913  0.59357312     0.32300
H389        H  0.58820571  0.00044353  0.57306169     0.35200
H390        H  0.44760404  0.90441694  0.42734657     0.27800
H391        H  0.50569779  0.10591986  0.41733146     0.40700
H392        H  0.45044844  0.06873978  0.56270069     0.30700
H393        H  0.38644439  0.98491206  0.51727077     0.38300
H394        H  0.60235678  0.00127931  0.50862680     0.30200
H395        H  0.54781922  0.07973309  0.59486288     0.30200
H396        H  0.52693122  0.95632472  0.59977967     0.30500
C397        C  0.47051299  0.98815987  0.63675841    -0.03900
C398        C  0.47663047  0.96451566  0.65617914    -0.09600
C399        C  0.47667635  0.96504964  0.68781859    -0.17300
C400        C  0.47021606  0.98889742  0.70024259     0.24900
C401        C  0.46256718  0.01142318  0.68084249    -0.19000
C402        C  0.46273077  0.01110340  0.64932016    -0.07900
C403        C  0.47325230  0.99161573  0.73309476    -0.14300
C404        C  0.47715830  0.99497532  0.76071958    -0.14000
C405        C  0.48272470  0.99881195  0.79380391     0.24800
C406        C  0.48801764  0.02904113  0.80758383    -0.19400
C407        C  0.49380598  0.03270808  0.83990271    -0.07900
C408        C  0.49449795  0.00614445  0.85873298    -0.04000
C409        C  0.48902952  0.97585080  0.84445350    -0.09300
C410        C  0.48321251  0.97226838  0.81229826    -0.16900
H411        H  0.48279881  0.94663709  0.64720906     0.11200
H412        H  0.48263407  0.94750188  0.70271191     0.10500
H413        H  0.45740020  0.02987616  0.69022664     0.10400
H414        H  0.45756866  0.02939785  0.63491184     0.10900
H415        H  0.48765085  0.04973506  0.79335322     0.11000
H416        H  0.49759859  0.05617254  0.85007626     0.11000
H417        H  0.48903131  0.95465772  0.85807794     0.11100
H418        H  0.47910446  0.94876008  0.80186854     0.09900
C419        C  0.49664151  0.01049594  0.35963311    -0.03900
C420        C  0.47992449  0.97771452  0.34384287    -0.09600
C421        C  0.47536517  0.97510749  0.31171327    -0.17300
C422        C  0.48750481  0.00514402  0.29478724     0.24900
C423        C  0.50383101  0.03791621  0.31009517    -0.19000
C424        C  0.50826611  0.04060762  0.34237733    -0.07900
C425        C  0.48360814  0.00203952  0.26180931    -0.14300
C426        C  0.48045242  0.99864248  0.23428892    -0.14000
C427        C  0.47736894  0.99557464  0.20145009     0.24800
C428        C  0.47445829  0.02077855  0.18243649    -0.19400
C429        C  0.47310636  0.01905342  0.15075133    -0.07900
C430        C  0.47465593  0.99200269  0.13751733    -0.04000
C431        C  0.47677394  0.96627216  0.15671161    -0.09300
C432        C  0.47818223  0.96811590  0.18854746    -0.16900
H433        H  0.47022029  0.95393126  0.35631228     0.11200
H434        H  0.46257193  0.94963172  0.30009555     0.10500
H435        H  0.51331406  0.06135144  0.29712398     0.10400
H436        H  0.52119370  0.06614815  0.35384595     0.10900
H437        H  0.47375874  0.04209107  0.19218218     0.11000
H438        H  0.47139136  0.03930451  0.13672263     0.11000
H439        H  0.47824033  0.94528287  0.14731178     0.11100
H440        H  0.48045290  0.94846170  0.20315348     0.09900
C441        C  0.36028287  0.86520969  0.52430545    -0.03900
C442        C  0.32600945  0.85619097  0.50719410    -0.09600
C443        C  0.29673659  0.82351262  0.50958392    -0.17300
C444        C  0.30107546  0.79918960  0.52904978     0.24900
C445        C  0.33492556  0.80794424  0.54648866    -0.19000
C446        C  0.36432572  0.84071270  0.54418218    -0.07900
C447        C  0.27079954  0.76508732  0.53034742    -0.14300
C448        C  0.24459211  0.73680163  0.52984073    -0.14000
C449        C  0.21255538  0.70333079  0.52773156     0.24800
C450        C  0.20079225  0.68032196  0.50215911    -0.19400
C451        C  0.16921995  0.64828301  0.49952946    -0.07900
C452        C  0.14884423  0.63870102  0.52250714    -0.04000
C453        C  0.16103958  0.66192719  0.54825153    -0.09300
C454        C  0.19261311  0.69400490  0.55078190    -0.16900
H455        H  0.32177683  0.87425185  0.49165129     0.11200
H456        H  0.27071346  0.81707893  0.49594710     0.10500
H457        H  0.33867431  0.78932785  0.56160360     0.10400
H458        H  0.39026897  0.84660942  0.55757004     0.10900
H459        H  0.21589009  0.68726222  0.48409374     0.11000
H460        H  0.16068627  0.63115697  0.47936538     0.11000
H461        H  0.14596353  0.65556156  0.56625613     0.11100
H462        H  0.20131780  0.71164617  0.57060961     0.09900
C463        C  0.84683235  0.36933937  0.47565658    -0.03900
C464        C  0.83286600  0.34920270  0.44751747    -0.09600
C465        C  0.80074897  0.31745852  0.44350620    -0.17300
C466        C  0.78200072  0.30529144  0.46746569     0.24900
C467        C  0.79529719  0.32542741  0.49526948    -0.19000
C468        C  0.82739144  0.35716731  0.49935366    -0.07900
C469        C  0.74995376  0.27158071  0.46415956    -0.14300
C470        C  0.72395343  0.24298285  0.46319912    -0.14000
C471        C  0.69388251  0.20870415  0.46474813     0.24800
C472        C  0.65978197  0.19969148  0.44774304    -0.19400
C473        C  0.63038572  0.16741469  0.45135747    -0.07900
C474        C  0.63463318  0.14369420  0.47221468    -0.04000
C475        C  0.66921254  0.15262457  0.48839605    -0.09300
C476        C  0.69850091  0.18479768  0.48466683    -0.16900
H477        H  0.84693577  0.35772229  0.42867765     0.11200
H478        H  0.79080757  0.30218486  0.42186840     0.10500
H479        H  0.78109028  0.31634901  0.51401903     0.10400
H480        H  0.83717195  0.37192034  0.52124885     0.10900
H481        H  0.65578134  0.21790009  0.43221491     0.11000
H482        H  0.60423987  0.16149028  0.43847526     0.11000
H483        H  0.67363021  0.13503606  0.50446543     0.11100
H484        H  0.72471342  0.19135263  0.49791626     0.09900
C485        C  0.99656158  0.49548345  0.86050694    -0.03900
C486        C  0.96765205  0.46944257  0.83955541    -0.09600
C487        C  0.96555637  0.47219715  0.80751407    -0.17300
C488        C  0.99218722  0.50102427  0.79587045     0.24900
C489        C  0.02130189  0.52677817  0.81652074    -0.19000
C490        C  0.02355711  0.52401818  0.84858768    -0.07900
C491        C  0.98952037  0.50432409  0.76277014    -0.14300
C492        C  0.98767341  0.50712420  0.73510111    -0.14000
C493        C  0.98654005  0.51021817  0.70213239     0.24800
C494        C  0.01383659  0.53905883  0.69114766    -0.19400
C495        C  0.01409790  0.54106383  0.65940523    -0.07900
C496        C  0.98692265  0.51425595  0.63802163    -0.04000
C497        C  0.95907471  0.48578136  0.64924314    -0.09300
C498        C  0.95895665  0.48378412  0.68102460    -0.16900
H499        H  0.94638187  0.44712197  0.84787376     0.11200
H500        H  0.94294437  0.45202091  0.79181172     0.10500
H501        H  0.04210651  0.54921320  0.80782636     0.10400
H502        H  0.04602139  0.54466072  0.86397351     0.10900
H503        H  0.03532132  0.55973455  0.70720014     0.11000
H504        H  0.03589910  0.56338927  0.65168765     0.11000
H505        H  0.93780616  0.46456155  0.63358814     0.11100
H506        H  0.93766773  0.46129737  0.68918195     0.09900
C507        C  0.98716310  0.51850679  0.13847574    -0.03900
C508        C  0.96030764  0.49089144  0.15129877    -0.09600
C509        C  0.96249288  0.49036227  0.18336283    -0.17300
C510        C  0.99142996  0.51740820  0.20298303     0.24900
C511        C  0.01787656  0.54533473  0.19047142    -0.19000
C512        C  0.01581610  0.54591268  0.15846162    -0.07900
C513        C  0.99460718  0.51590913  0.23601747    -0.14300
C514        C  0.99726205  0.51373897  0.26366566    -0.14000
C515        C  0.99948136  0.50982085  0.29645873     0.24800
C516        C  0.03112730  0.53117013  0.31751376    -0.19400
C517        C  0.03293978  0.52747640  0.34945124    -0.07900
C518        C  0.00306216  0.50228053  0.36064208    -0.04000
C519        C  0.97152568  0.48065855  0.33913384    -0.09300
C520        C  0.96979697  0.48445881  0.30731371    -0.16900
H521        H  0.93808952  0.46924703  0.13668669     0.11200
H522        H  0.94192917  0.46856642  0.19289403     0.10500
H523        H  0.04040741  0.56636682  0.20549758     0.10400
H524        H  0.03704679  0.56753375  0.14946765     0.10900
H525        H  0.05430156  0.55080693  0.30925670     0.11000
H526        H  0.05756856  0.54453402  0.36531846     0.11000
H527        H  0.94793202  0.46104062  0.34682839     0.11100
H528        H  0.94521361  0.46774802  0.29117635     0.09900
C529        C  0.14450532  0.63701348  0.02052923    -0.03900
C530        C  0.16057172  0.65705732  0.04875559    -0.09600
C531        C  0.19320258  0.68811467  0.05180865    -0.17300
C532        C  0.21023995  0.69961041  0.02675177     0.24900
C533        C  0.19475376  0.67966945  0.99874441    -0.19000
C534        C  0.16217595  0.64861721  0.99562407    -0.07900
C535        C  0.24269082  0.73263254  0.02916934    -0.14300
C536        C  0.26875603  0.76095392  0.02969059    -0.14000
C537        C  0.29850952  0.79527816  0.02835365     0.24800
C538        C  0.33253740  0.80442773  0.04552636    -0.19400
C539        C  0.36143986  0.83752536  0.04334981    -0.07900
C540        C  0.35669112  0.86192124  0.02385263    -0.04000
C541        C  0.32226408  0.85245624  0.00688910    -0.09300
C542        C  0.29345086  0.81943986  0.00919300    -0.16900
H543        H  0.14780728  0.64895121  0.06841699     0.11200
H544        H  0.20489373  0.70339185  0.07357637     0.10500
H545        H  0.20762853  0.68836807  0.97914618     0.10400
H546        H  0.15066661  0.63395259  0.97355524     0.10900
H547        H  0.33680315  0.78588325  0.06034104     0.11000
H548        H  0.38757800  0.84374166  0.05649040     0.11000
H549        H  0.31757973  0.87044154  0.99158596     0.11100
H550        H  0.26724017  0.81262626  0.99574937     0.09900
C551        C  0.63187513  0.13988633  0.97477059    -0.03900
C552        C  0.62945352  0.16349678  0.95282763    -0.09600
C553        C  0.65976852  0.19539304  0.95026098    -0.17300
C554        C  0.69272146  0.20397726  0.96959380     0.24900
C555        C  0.69542820  0.18036681  0.99094515    -0.19000
C556        C  0.66535433  0.14864369  0.99355817    -0.07900
C557        C  0.72369481  0.23753891  0.96903631    -0.14300
C558        C  0.75066939  0.26535588  0.97126217    -0.14000
C559        C  0.78321919  0.29838395  0.97521922     0.24800
C560        C  0.79913005  0.31280552  0.94991133    -0.19400
C561        C  0.83041906  0.34509846  0.95349006    -0.07900
C562        C  0.84635597  0.36358089  0.98251492    -0.04000
C563        C  0.83028929  0.34867587  0.00795841    -0.09300
C564        C  0.79896981  0.31624712  0.00431026    -0.16900
H565        H  0.60411567  0.15764490  0.93810460     0.11200
H566        H  0.65738169  0.21356650  0.93366169     0.10500
H567        H  0.72076250  0.18675865  0.00603855     0.10400
H568        H  0.66836296  0.13119463  0.01068370     0.10900
H569        H  0.78726367  0.29915479  0.92733624     0.11000
H570        H  0.84199289  0.35565458  0.93339460     0.11000
H571        H  0.84191567  0.36198646  0.03066556     0.11100
H572        H  0.78696374  0.30518786  0.02413261     0.09900
C573        C  0.48831972  0.86002792  0.50246586    -0.03900
C574        C  0.48163285  0.83844951  0.52789795    -0.09600
C575        C  0.48078693  0.80655795  0.52704410    -0.17300
C576        C  0.48649693  0.79581613  0.50077706     0.24900
C577        C  0.49232992  0.81668969  0.47516464    -0.19000
C578        C  0.49320270  0.84846360  0.47594107    -0.07900
C579        C  0.48702813  0.76374428  0.50003121    -0.14300
C580        C  0.48792470  0.73722395  0.49850783    -0.14000
C581        C  0.48867367  0.70541397  0.49656266     0.24800
C582        C  0.48821350  0.69288765  0.46810582    -0.19400
C583        C  0.48803266  0.66147902  0.46617736    -0.07900
C584        C  0.48816244  0.64217401  0.49274221    -0.04000
C585        C  0.48901049  0.65527106  0.52127592    -0.09300
C586        C  0.48931460  0.68663931  0.52313964    -0.16900
H587        H  0.47741002  0.84632655  0.54853083     0.11200
H588        H  0.47602484  0.79046353  0.54695839     0.10500
H589        H  0.49656268  0.80856078  0.45464633     0.10400
H590        H  0.49802907  0.86408472  0.45575764     0.10900
H591        H  0.48777895  0.70729095  0.44738227     0.11000
H592        H  0.48746914  0.65219644  0.44391005     0.11000
H593        H  0.48950205  0.64133773  0.54228421     0.11100
H594        H  0.48982816  0.69613432  0.54530322     0.09900
C595        C  0.50553777  0.36992376  0.49976533    -0.03900
C596        C  0.50637221  0.35670102  0.47206580    -0.09600
C597        C  0.50444337  0.32442975  0.47098071    -0.17300
C598        C  0.50183713  0.30501894  0.49753711     0.24900
C599        C  0.50092926  0.31787213  0.52517899    -0.19000
C600        C  0.50269596  0.35008342  0.52630786    -0.07900
C601        C  0.50081605  0.27224161  0.49659251    -0.14300
C602        C  0.50068662  0.24508511  0.49633413    -0.14000
C603        C  0.50113245  0.21290860  0.49705269     0.24800
C604        C  0.49950508  0.19514077  0.52454480    -0.19400
C605        C  0.50019541  0.16401114  0.52552565    -0.07900
C606        C  0.50256949  0.15016435  0.49894286    -0.04000
C607        C  0.50424033  0.16829926  0.47139230    -0.09300
C608        C  0.50349594  0.19945028  0.47048112    -0.16900
H609        H  0.50829126  0.37115368  0.45114603     0.11200
H610        H  0.50513549  0.31468970  0.44946361     0.10500
H611        H  0.49898722  0.30305435  0.54589307     0.10400
H612        H  0.50203020  0.35950392  0.54798887     0.10900
H613        H  0.49771090  0.20535996  0.54525497     0.11000
H614        H  0.49885254  0.15082232  0.54714203     0.11000
H615        H  0.50592785  0.15836085  0.45048952     0.11100
H616        H  0.50476812  0.21302537  0.44906461     0.09900
C617        C  0.13028428  0.48731213  0.49382920    -0.03900
C618        C  0.16077527  0.51700740  0.48747845    -0.09600
C619        C  0.19260962  0.51678197  0.49086236    -0.17300
C620        C  0.19418389  0.48684409  0.50036383     0.24900
C621        C  0.16374485  0.45687383  0.50585971    -0.19000
C622        C  0.13198521  0.45711962  0.50275159    -0.07900
C623        C  0.22712192  0.48695677  0.50486440    -0.14300
C624        C  0.25446560  0.48659847  0.50809817    -0.14000
C625        C  0.28645371  0.48550520  0.50995299     0.24800
C626        C  0.28675878  0.46323673  0.48934635    -0.19400
C627        C  0.31822143  0.46347799  0.48945371    -0.07900
C628        C  0.34992812  0.48616092  0.51018128    -0.04000
C629        C  0.34912561  0.50780927  0.53145168    -0.09300
C630        C  0.31750268  0.50745560  0.53131001    -0.16900
H631        H  0.16033541  0.54073353  0.48092343     0.11200
H632        H  0.21609957  0.54008821  0.48653821     0.10500
H633        H  0.16471174  0.43351961  0.51304206     0.10400
H634        H  0.10888340  0.43385071  0.50771131     0.10900
H635        H  0.26280561  0.44616438  0.47274338     0.11000
H636        H  0.31783157  0.44652025  0.47271197     0.11000
H637        H  0.37302443  0.52551863  0.54773354     0.11100
H638        H  0.31743441  0.52475577  0.54739570     0.09900
C639        C  0.64728789  0.52368180  0.48827097    -0.03900
C640        C  0.67969335  0.55156557  0.50396508    -0.09600
C641        C  0.71147164  0.55154075  0.50648905    -0.17300
C642        C  0.71131323  0.52368511  0.49345935     0.24900
C643        C  0.67950657  0.49641703  0.47687226    -0.19000
C644        C  0.64762958  0.49643698  0.47418310    -0.07900
C645        C  0.74369809  0.52272998  0.49798566    -0.14300
C646        C  0.77120491  0.52254754  0.50212495    -0.14000
C647        C  0.80427186  0.52311146  0.50581370     0.24800
C648        C  0.83035663  0.54788766  0.49081001    -0.19400
C649        C  0.86166893  0.54728559  0.49246018    -0.07900
C650        C  0.86727671  0.52177417  0.50916045    -0.04000
C651        C  0.84135568  0.49764910  0.52506539    -0.09300
C652        C  0.80996141  0.49831189  0.52333096    -0.16900
H653        H  0.68043705  0.57308081  0.51489366     0.11200
H654        H  0.73604667  0.57287657  0.51918147     0.10500
H655        H  0.67923137  0.47480239  0.46660441     0.10400
H656        H  0.62316761  0.47458085  0.46202775     0.10900
H657        H  0.82618045  0.56725055  0.47729593     0.11000
H658        H  0.88110727  0.56637248  0.48006218     0.11000
H659        H  0.84485853  0.47771178  0.53812236     0.11100
H660        H  0.78985603  0.47907834  0.53509141     0.09900
C661        C  0.52245857  0.52176564  0.86162457    -0.03900
C662        C  0.53639810  0.50375724  0.84988290    -0.09600
C663        C  0.53645162  0.50351629  0.81814915    -0.17300
C664        C  0.52239397  0.52105645  0.79768500     0.24900
C665        C  0.50962158  0.53994155  0.80935386    -0.19000
C666        C  0.50974070  0.54040811  0.84101454    -0.07900
C667        C  0.51909615  0.51823169  0.76456185    -0.14300
C668        C  0.51460490  0.51539053  0.73666216    -0.14000
C669        C  0.50870883  0.51176527  0.70327773     0.24800
C670        C  0.50073466  0.53440035  0.68418728    -0.19400
C671        C  0.49580876  0.53134752  0.65188317    -0.07900
C672        C  0.49866400  0.50546381  0.63810455    -0.04000
C673        C  0.50636438  0.48263950  0.65752883    -0.09300
C674        C  0.51126340  0.48575396  0.68979423    -0.16900
H675        H  0.54658347  0.48928196  0.86509056     0.11200
H676        H  0.54657549  0.48890432  0.80947574     0.10500
H677        H  0.49866812  0.55361282  0.79381868     0.10400
H678        H  0.49864252  0.55436815  0.84913860     0.10900
H679        H  0.49853229  0.55457176  0.69427909     0.11000
H680        H  0.48988345  0.54934855  0.63774971     0.11000
H681        H  0.50877532  0.46240469  0.64784596     0.11100
H682        H  0.51727880  0.46797429  0.70424748     0.09900
C683        C  0.52100106  0.52332596  0.35973203    -0.03900
C684        C  0.52718523  0.49942451  0.34661935    -0.09600
C685        C  0.52412458  0.49712599  0.31453703    -0.17300
C686        C  0.51495609  0.51868504  0.29499077     0.24900
C687        C  0.51012577  0.54349868  0.30784369    -0.19000
C688        C  0.51317401  0.54586899  0.33994857    -0.07900
C689        C  0.50876883  0.51403937  0.26173980    -0.14300
C690        C  0.50245000  0.50898202  0.23396132    -0.14000
C691        C  0.49452096  0.50297130  0.20074745     0.24800
C692        C  0.48548293  0.52449036  0.18106790    -0.19400
C693        C  0.47910658  0.51970886  0.14889266    -0.07900
C694        C  0.48174415  0.49328824  0.13577589    -0.04000
C695        C  0.48991267  0.47114657  0.15574188    -0.09300
C696        C  0.49626192  0.47599694  0.18800432    -0.16900
H697        H  0.53330536  0.48168890  0.36100228     0.08800
H698        H  0.52800980  0.47786929  0.30489463     0.10500
H699        H  0.50309550  0.56041220  0.29298602     0.10400
H700        H  0.50828568  0.56462398  0.34911653     0.10900
H701        H  0.48386555  0.54533576  0.19059981     0.11000
H702        H  0.47283488  0.53726245  0.13434731     0.11000
H703        H  0.49223909  0.45062911  0.14650540     0.11100
H704        H  0.50307990  0.45905200  0.20301232     0.09900
C705        C  0.48663891  0.85759197  0.00350765    -0.03900
C706        C  0.47575487  0.83441340  0.02739760    -0.09600
C707        C  0.47396995  0.80208718  0.02643959    -0.17300
C708        C  0.48307677  0.79262778  0.00166633     0.24900
C709        C  0.49414454  0.81558718  0.97800988    -0.19000
C710        C  0.49591818  0.84775130  0.97887334    -0.07900
C711        C  0.48146336  0.75958031  0.00032911    -0.14300
C712        C  0.48111441  0.73247541  0.99843184    -0.14000
C713        C  0.48144458  0.70044837  0.99663865     0.24800
C714        C  0.49649536  0.69506379  0.97427038    -0.19400
C715        C  0.49724172  0.66408601  0.97295938    -0.07900
C716        C  0.48298664  0.63814289  0.99408682    -0.04000
C717        C  0.46811912  0.64397338  0.01660133    -0.09300
C718        C  0.46726523  0.67484258  0.01775299    -0.16900
H719        H  0.46835248  0.84109609  0.04663296     0.11200
H720        H  0.46542033  0.78447702  0.04493501     0.10500
H721        H  0.50136358  0.80859464  0.95879693     0.10400
H722        H  0.50449701  0.86485560  0.96008646     0.10900
H723        H  0.50776127  0.71484441  0.95792256     0.11000
H724        H  0.50919988  0.66057754  0.95559013     0.11000
H725        H  0.45695284  0.62462120  0.03328130     0.11100
H726        H  0.45566119  0.67879657  0.03520926     0.09900
C727        C  0.49893007  0.14639965  0.99566972    -0.03900
C728        C  0.49027813  0.15708987  0.02021664    -0.09600
C729        C  0.49036859  0.18853519  0.01956849    -0.17300
C730        C  0.49918180  0.20982868  0.99448656     0.24900
C731        C  0.50757799  0.19944860  0.96980746    -0.19000
C732        C  0.50747108  0.16789294  0.97035970    -0.07900
C733        C  0.50024723  0.24262308  0.99456785    -0.14300
C734        C  0.50116930  0.27005782  0.99557933    -0.14000
C735        C  0.50164663  0.30246111  0.99688177     0.24800
C736        C  0.51164271  0.32561216  0.97314167    -0.19400
C737        C  0.51056956  0.35642575  0.97361866    -0.07900
C738        C  0.49952008  0.36451088  0.99796959    -0.04000
C739        C  0.49010962  0.34127074  0.02201040    -0.09300
C740        C  0.49121017  0.31045770  0.02145189    -0.16900
H741        H  0.48348534  0.14122019  0.04004221     0.11200
H742        H  0.48380512  0.19635761  0.03876168     0.10500
H743        H  0.51444046  0.21584013  0.95027564     0.10400
H744        H  0.51426052  0.16047092  0.95111190     0.10900
H745        H  0.51990473  0.31967361  0.95409605     0.11000
H746        H  0.51823028  0.37377906  0.95481400     0.11000
H747        H  0.48174437  0.34677556  0.04118755     0.11100
H748        H  0.48357332  0.29270888  0.04001577     0.09900
C749        C  0.34907575  0.49372499  0.01086211    -0.03900
C750        C  0.31620562  0.47010760  0.99207272    -0.09600
C751        C  0.28616169  0.47292872  0.99081328    -0.17300
C752        C  0.28841974  0.49925533  0.00834134     0.24900
C753        C  0.32063426  0.52224123  0.02791658    -0.19000
C754        C  0.35085801  0.51949690  0.02923028    -0.07900
C755        C  0.25757484  0.50266834  0.00567353    -0.14300
C756        C  0.23050475  0.50354387  0.00263995    -0.14000
C757        C  0.19699457  0.50196537  0.99971011     0.24800
C758        C  0.18687560  0.52116021  0.97767577    -0.19400
C759        C  0.15411497  0.51938258  0.97524533    -0.07900
C760        C  0.13118659  0.49828336  0.99484419    -0.04000
C761        C  0.14160661  0.47880681  0.01659999    -0.09300
C762        C  0.17422952  0.48068190  0.01898219    -0.16900
H763        H  0.31381562  0.44993226  0.97767413     0.11200
H764        H  0.26127351  0.45491602  0.97571717     0.10500
H765        H  0.32254092  0.54263164  0.04168384     0.10400
H766        H  0.37575998  0.53818056  0.04384113     0.10900
H767        H  0.20434211  0.53758946  0.96253054     0.11000
H768        H  0.14692170  0.53469415  0.95828724     0.11000
H769        H  0.12472114  0.46227353  0.03209144     0.11100
H770        H  0.18176955  0.46560664  0.03599511     0.09900
C771        C  0.63460866  0.50880408  0.98484848    -0.03900
C772        C  0.66679608  0.53303285  0.00411508    -0.09600
C773        C  0.69792588  0.53251293  0.00496275    -0.17300
C774        C  0.69741190  0.50785678  0.98663076     0.24900
C775        C  0.66583140  0.48410764  0.96680476    -0.19000
C776        C  0.63446486  0.48457440  0.96585986    -0.07900
C777        C  0.72924688  0.50637305  0.98947886    -0.14300
C778        C  0.75693475  0.50656802  0.99414267    -0.14000
C779        C  0.79061918  0.50813961  0.00057469     0.24800
C780        C  0.79272106  0.47810201  0.00826653    -0.19400
C781        C  0.82542252  0.47939058  0.01299247    -0.07900
C782        C  0.85614212  0.51073070  0.00976074    -0.04000
C783        C  0.85392639  0.54102503  0.00310578    -0.09300
C784        C  0.82131616  0.53973424  0.99865152    -0.16900
H785        H  0.66793902  0.55212619  0.01899706     0.11200
H786        H  0.72230070  0.55096756  0.02036522     0.10500
H787        H  0.66533429  0.46489669  0.95256334     0.10400
H788        H  0.61008894  0.46554975  0.95089416     0.10900
H789        H  0.76900766  0.45358533  0.00993127     0.11000
H790        H  0.82641257  0.45564354  0.01779068     0.11000
H791        H  0.87728992  0.56552150  0.00065910     0.11100
H792        H  0.81991095  0.56316868  0.99300579     0.09900
loop_ 
_geom_bond_atom_site_label_1 
_geom_bond_atom_site_label_2 
_geom_bond_distance 
_geom_bond_site_symmetry_2 
_ccdc_geom_bond_type 
Zr1           O2   2.439       .  S
Zr1           O3   2.425       .  S
Zr1           O4   2.431       .  S
Zr1           O7   2.411       .  S
Zr1           O9   2.379       .  S
Zr1          O10   2.382   1_556  S
Zr1          O11   2.399       .  S
Zr1          O12   2.397       .  S
O2           H58   0.990       .  S
O2           H66   0.990       .  S
O3           C23   1.283       .  A
O4           C25   1.284       .  A
O5          Zr15   2.438       .  S
O5           C24   1.287   1_554  A
O6          Zr14   2.451       .  S
O6           C25   1.288       .  A
O7           C24   1.282       .  A
O8          Zr16   2.398       .  S
O8           C23   1.278   1_554  A
O9          Zr14   2.388       .  S
O9          Zr16   2.378   1_556  S
O10         Zr15   2.387       .  S
O10         Zr16   2.375       .  S
O10          H45   0.966       .  S
O11         Zr14   2.395       .  S
O11         Zr31   2.393       .  S
O11          H48   0.965       .  S
O12         Zr15   2.386   1_556  S
O12         Zr31   2.388       .  S
Zr13         O38   2.443       .  S
Zr13         O32   2.426       .  S
Zr13         O40   2.418       .  S
Zr13         O28   2.419       .  S
Zr13         O19   2.392       .  S
Zr13         O20   2.400       .  S
Zr13         O21   2.377   1_554  S
Zr13         O22   2.382       .  S
Zr14         O33   2.436       .  S
Zr14         O26   2.437       .  S
Zr14         O27   2.438       .  S
Zr14         O20   2.401   1_556  S
Zr14         O21   2.393       .  S
Zr15         O17   2.438       .  S
Zr15         O39   2.435       .  S
Zr15         O41   2.445       .  S
Zr15         O19   2.392       .  S
Zr15         O22   2.390       .  S
Zr16         O42   2.438       .  S
Zr16         O43   2.437       .  S
Zr16         O18   2.437       .  S
Zr16         O19   2.386       .  S
Zr16         O20   2.386       .  S
O17          H54   0.990       .  S
O18          H49   0.990   1_554  S
O18          H63   0.990       .  S
O20          H46   0.965       .  S
O21         Zr31   2.375       .  S
O22         Zr31   2.382   1_554  S
O22          H47   0.966       .  S
C23         C771   1.473       .  S
C24         C738   1.481       .  S
C25         C661   1.489       .  S
O26          H62   0.990       .  S
O27          C29   1.286       .  A
O28          C29   1.281   1_554  A
C29         C716   1.481       .  S
O30         Zr31   2.439       .  S
O30          H59   0.990       .  S
Zr31         O34   2.438       .  S
Zr31         O35   2.438       .  S
Zr31         O36   2.416       .  S
O32          C37   1.283       .  A
O33          H50   0.990       .  S
O33          H65   0.990       .  S
O34          H51   0.990       .  S
O35          H55   0.990   1_556  S
O35          H64   0.990       .  S
O36          C37   1.282   1_556  A
C37         C749   1.479       .  S
O38          H57   0.991       .  S
O38          H61   0.990       .  S
O39          H53   0.990       .  S
O39          H60   0.990       .  S
O40          C44   1.283       .  A
O41          C44   1.287       .  A
O42          H52   0.990       .  S
O43          H56   0.990       .  S
C44         C694   1.486       .  S
Zr67         O68   2.442       .  S
Zr67         O69   2.439       .  S
Zr67         O70   2.451       .  S
Zr67         O73   2.421       .  S
Zr67         O75   2.377       .  S
Zr67         O76   2.388       .  S
Zr67         O77   2.402       .  S
Zr67         O78   2.407       .  S
O68         H124   0.990       .  S
O68         H132   0.990       .  S
O69          C89   1.285       .  A
O70          C91   1.287       .  A
O71         Zr81   2.432       .  S
O71          C90   1.285       .  A
O72         Zr80   2.433       .  S
O72          C91   1.285       .  A
O73          C90   1.283       .  A
O74         Zr82   2.407       .  S
O74          C89   1.280       .  A
O75         Zr80   2.397       .  S
O75         Zr82   2.379       .  S
O76         Zr81   2.397       .  S
O76         Zr82   2.380       .  S
O76         H111   0.967       .  S
O77         Zr80   2.401       .  S
O77         Zr97   2.398       .  S
O77         H114   0.966       .  S
O78         Zr81   2.396       .  S
O78         Zr97   2.391       .  S
Zr79        O104   2.443       .  S
Zr79         O98   2.431       .  S
Zr79        O106   2.444       .  S
Zr79         O94   2.428       .  S
Zr79         O85   2.392       .  S
Zr79         O86   2.409       .  S
Zr79         O87   2.380       .  S
Zr79         O88   2.385       .  S
Zr80         O99   2.434       .  S
Zr80         O92   2.435       .  S
Zr80         O93   2.434       .  S
Zr80         O86   2.401       .  S
Zr80         O87   2.394       .  S
Zr81         O83   2.437       .  S
Zr81        O105   2.436       .  S
Zr81        O107   2.429       .  S
Zr81         O85   2.391       .  S
Zr81         O88   2.392       .  S
Zr82        O108   2.435       .  S
Zr82        O109   2.437       .  S
Zr82         O84   2.439       .  S
Zr82         O85   2.388       .  S
Zr82         O86   2.389       .  S
O83         H120   0.990       .  S
O84         H115   0.990       .  S
O84         H129   0.990       .  S
O86         H112   0.965       .  S
O87         Zr97   2.381       .  S
O88         Zr97   2.388       .  S
O88         H113   0.967       .  S
C89         C639   1.479       .  S
C90         C595   1.480       .  S
C91         C683   1.491       .  S
O92         H128   0.990       .  S
O93          C95   1.285       .  A
O94          C95   1.282       .  A
C95         C584   1.482       .  S
O96         Zr97   2.446       .  S
O96         H125   0.990       .  S
Zr97        O100   2.438       .  S
Zr97        O101   2.444       .  S
Zr97        O102   2.408       .  S
O98         C103   1.283       .  A
O99         H116   0.990       .  S
O99         H131   0.990       .  S
O100        H117   0.990       .  S
O101        H121   0.990       .  S
O101        H130   0.990       .  S
O102        C103   1.279       .  A
C103        C628   1.479       .  S
O104        H123   0.991       .  S
O104        H127   0.991       .  S
O105        H119   0.990       .  S
O105        H126   0.990       .  S
O106        C110   1.286       .  A
O107        C110   1.284       .  A
O108        H118   0.990       .  S
O109        H122   0.990       .  S
C110        C672   1.489       .  S
Zr133       O134   2.441       .  S
Zr133       O135   2.429       .  S
Zr133       O136   2.452       .  S
Zr133       O139   2.439       .  S
Zr133       O141   2.388       .  S
Zr133       O142   2.387   1_554  S
Zr133       O143   2.404   1_655  S
Zr133       O144   2.400       .  S
O134        H190   0.990       .  S
O134        H198   0.990       .  S
O135        C155   1.283       .  A
O136        C157   1.288       .  A
O137       Zr147   2.426       .  S
O137        C156   1.284       .  A
O138       Zr146   2.413       .  S
O138        C157   1.282   1_455  A
O139        C156   1.286   1_554  A
O140       Zr148   2.409       .  S
O140        C155   1.279   1_556  A
O141       Zr146   2.398   1_655  S
O141       Zr148   2.377   1_554  S
O142       Zr147   2.390       .  S
O142       Zr148   2.381       .  S
O142        H177   0.965       .  S
O143       Zr146   2.407       .  S
O143       Zr163   2.389       .  S
O143        H180   0.965       .  S
O144       Zr147   2.385   1_554  S
O144       Zr163   2.390   1_655  S
Zr145       O170   2.438       .  S
Zr145       O164   2.435       .  S
Zr145       O172   2.437       .  S
Zr145       O160   2.435       .  S
Zr145       O151   2.401   1_455  S
Zr145       O152   2.408       .  S
Zr145       O153   2.376   1_556  S
Zr145       O154   2.381       .  S
Zr146       O165   2.437       .  S
Zr146       O158   2.435       .  S
Zr146       O159   2.431       .  S
Zr146       O152   2.396   1_554  S
Zr146       O153   2.386       .  S
Zr147       O149   2.434       .  S
Zr147       O171   2.441       .  S
Zr147       O173   2.420       .  S
Zr147       O151   2.394       .  S
Zr147       O154   2.389   1_655  S
Zr148       O174   2.435       .  S
Zr148       O175   2.438       .  S
Zr148       O150   2.439   1_556  S
Zr148       O151   2.396       .  S
Zr148       O152   2.396   1_655  S
O149        H186   0.990       .  S
O150        H181   0.991   1_554  S
O150        H195   0.990       .  S
O152        H178   0.965       .  S
O153       Zr163   2.375       .  S
O154       Zr163   2.382   1_556  S
O154        H179   0.966       .  S
C155        C782   1.470       .  S
C156        C562   1.487       .  S
C157        C507   1.483       .  S
O158        H194   0.989       .  S
O159        C161   1.284       .  A
O160        C161   1.284   1_556  A
C161        C529   1.486       .  S
O162       Zr163   2.436   1_655  S
O162        H191   0.990       .  S
Zr163       O166   2.437       .  S
Zr163       O167   2.443       .  S
Zr163       O168   2.407       .  S
O164        C169   1.284       .  A
O165        H182   0.990       .  S
O165        H197   0.990       .  S
O166        H183   0.990       .  S
O167        H187   0.990       .  S
O167        H196   0.989   1_554  S
O168        C169   1.279   1_554  A
C169        C760   1.480       .  S
O170        H189   0.990       .  S
O170        H193   0.990       .  S
O171        H185   0.990       .  S
O171        H192   0.990       .  S
O172        C176   1.286   1_455  A
O173        C176   1.283       .  A
O174        H184   0.990       .  S
O175        H188   0.990   1_655  S
C176        C485   1.485       .  S
Zr199       O200   2.442       .  S
Zr199       O201   2.430       .  S
Zr199       O202   2.452       .  S
Zr199       O205   2.447       .  S
Zr199       O207   2.386       .  S
Zr199       O208   2.385       .  S
Zr199       O209   2.406   1_655  S
Zr199       O210   2.401       .  S
O200        H256   0.990       .  S
O200        H264   0.990       .  S
O201        C221   1.284       .  A
O202        C223   1.287       .  A
O203       Zr213   2.423       .  S
O203        C222   1.283       .  A
O204       Zr212   2.440       .  S
O204        C223   1.287   1_455  A
O205        C222   1.288       .  A
O206       Zr214   2.406       .  S
O206        C221   1.280       .  A
O207       Zr212   2.395   1_655  S
O207       Zr214   2.379       .  S
O208       Zr213   2.389       .  S
O208       Zr214   2.378       .  S
O208        H243   0.967       .  S
O209       Zr212   2.402       .  S
O209       Zr229   2.383       .  S
O209        H246   0.965       .  S
O210       Zr213   2.386       .  S
O210       Zr229   2.390   1_655  S
Zr211       O236   2.443       .  S
Zr211       O230   2.435       .  S
Zr211       O238   2.446       .  S
Zr211       O226   2.436       .  S
Zr211       O217   2.394   1_455  S
Zr211       O218   2.410       .  S
Zr211       O219   2.379       .  S
Zr211       O220   2.387       .  S
Zr212       O231   2.436       .  S
Zr212       O224   2.436       .  S
Zr212       O225   2.433       .  S
Zr212       O218   2.402       .  S
Zr212       O219   2.394       .  S
Zr213       O215   2.434       .  S
Zr213       O237   2.440       .  S
Zr213       O239   2.406       .  S
Zr213       O217   2.388       .  S
Zr213       O220   2.394   1_655  S
Zr214       O240   2.436       .  S
Zr214       O241   2.436       .  S
Zr214       O216   2.436       .  S
Zr214       O217   2.385       .  S
Zr214       O218   2.390   1_655  S
O215        H252   0.990       .  S
O216        H247   0.990       .  S
O216        H261   0.990       .  S
O218        H244   0.966       .  S
O219       Zr229   2.379       .  S
O220       Zr229   2.385       .  S
O220        H245   0.966       .  S
C221        C650   1.477       .  S
C222        C463   1.490       .  S
C223        C496   1.492       .  S
O224        H260   0.990       .  S
O225        C227   1.285       .  A
O226        C227   1.284       .  A
C227        C452   1.486       .  S
O228       Zr229   2.438   1_655  S
O228        H257   0.990   1_655  S
Zr229       O232   2.435       .  S
Zr229       O233   2.439       .  S
Zr229       O234   2.408       .  S
O230        C235   1.284       .  A
O231        H248   0.990       .  S
O231        H263   0.990       .  S
O232        H249   0.990       .  S
O233        H253   0.990       .  S
O233        H262   0.990   1_455  S
O234        C235   1.280       .  A
C235        C617   1.475       .  S
O236        H255   0.991       .  S
O236        H259   0.990       .  S
O237        H251   0.990       .  S
O237        H258   0.990       .  S
O238        C242   1.287       .  A
O239        C242   1.281   1_655  A
O240        H250   0.990       .  S
O241        H254   0.990   1_655  S
C242        C518   1.482       .  S
Zr265       O266   2.438       .  S
Zr265       O267   2.435       .  S
Zr265       O268   2.453       .  S
Zr265       O271   2.439       .  S
Zr265       O273   2.383       .  S
Zr265       O274   2.382   1_554  S
Zr265       O275   2.404   1_565  S
Zr265       O276   2.404       .  S
O266        H322   0.990       .  S
O266        H330   0.990       .  S
O267        C287   1.285       .  A
O268        C289   1.289       .  A
O269       Zr279   2.416       .  S
O269        C288   1.283   1_556  A
O270       Zr278   2.404       .  S
O270        C289   1.281   1_545  A
O271        C288   1.287       .  A
O272       Zr280   2.434       .  S
O272        C287   1.285   1_556  A
O273       Zr278   2.391   1_565  S
O273       Zr280   2.373   1_554  S
O274       Zr279   2.382       .  S
O274       Zr280   2.374       .  S
O274        H309   0.966       .  S
O275       Zr278   2.393       .  S
O275       Zr295   2.391       .  S
O275        H312   0.966       .  S
O276       Zr279   2.384   1_554  S
O276       Zr295   2.394   1_565  S
Zr277       O302   2.440       .  S
Zr277       O296   2.440       .  S
Zr277       O304   2.443       .  S
Zr277       O292   2.440       .  S
Zr277       O283   2.400   1_545  S
Zr277       O284   2.409       .  S
Zr277       O285   2.378   1_556  S
Zr277       O286   2.389       .  S
Zr278       O297   2.436       .  S
Zr278       O290   2.434       .  S
Zr278       O291   2.411       .  S
Zr278       O284   2.393   1_554  S
Zr278       O285   2.383       .  S
Zr279       O281   2.433       .  S
Zr279       O303   2.441       .  S
Zr279       O305   2.407       .  S
Zr279       O283   2.388       .  S
Zr279       O286   2.388   1_565  S
Zr280       O306   2.435       .  S
Zr280       O307   2.436       .  S
Zr280       O282   2.439       .  S
Zr280       O283   2.395       .  S
Zr280       O284   2.397   1_565  S
O281        H318   0.990       .  S
O282        H313   0.990       .  S
O282        H327   0.990   1_556  S
O284        H310   0.966       .  S
O285       Zr295   2.373       .  S
O286       Zr295   2.382   1_556  S
O286        H311   0.966       .  S
C287        C540   1.486       .  S
C288        C705   1.484       .  S
C289        C430   1.481       .  S
O290        H326   0.989       .  S
O291        C293   1.281   1_554  A
O292        C293   1.285       .  A
C293        C727   1.480       .  S
O294       Zr295   2.436       .  S
O294        H323   0.990       .  S
Zr295       O298   2.440       .  S
Zr295       O299   2.437       .  S
Zr295       O300   2.411       .  S
O296        C301   1.285       .  A
O297        H314   0.990       .  S
O297        H329   0.990       .  S
O298        H315   0.990       .  S
O299        H319   0.990   1_554  S
O299        H328   0.989   1_554  S
O300        C301   1.280   1_554  A
C301        C551   1.483       .  S
O302        H321   0.990       .  S
O302        H325   0.990       .  S
O303        H317   0.990       .  S
O303        H324   0.990       .  S
O304        C308   1.287       .  A
O305        C308   1.280   1_565  A
O306        H316   0.990       .  S
O307        H320   0.990   1_565  S
C308        C408   1.483       .  S
Zr331       O332   2.441       .  S
Zr331       O333   2.439       .  S
Zr331       O334   2.441       .  S
Zr331       O337   2.439       .  S
Zr331       O339   2.383       .  S
Zr331       O340   2.383       .  S
Zr331       O341   2.410   1_565  S
Zr331       O342   2.408       .  S
O332        H388   0.990       .  S
O332        H396   0.991       .  S
O333        C353   1.286       .  A
O334        C355   1.286       .  A
O335       Zr345   2.424       .  S
O335        C354   1.283       .  A
O336       Zr344   2.420       .  S
O336        C355   1.283   1_545  A
O337        C354   1.287       .  A
O338       Zr346   2.434       .  S
O338        C353   1.285       .  A
O339       Zr344   2.387   1_565  S
O339       Zr346   2.372       .  S
O340       Zr345   2.381       .  S
O340       Zr346   2.378       .  S
O340        H375   0.966       .  S
O341       Zr344   2.391       .  S
O341       Zr361   2.400       .  S
O341        H378   0.966       .  S
O342       Zr345   2.387       .  S
O342       Zr361   2.404   1_565  S
Zr343       O368   2.440       .  S
Zr343       O362   2.437       .  S
Zr343       O370   2.451       .  S
Zr343       O358   2.446       .  S
Zr343       O349   2.401   1_545  S
Zr343       O350   2.410       .  S
Zr343       O351   2.383       .  S
Zr343       O352   2.385       .  S
Zr344       O363   2.437       .  S
Zr344       O356   2.436       .  S
Zr344       O357   2.417       .  S
Zr344       O350   2.393       .  S
Zr344       O351   2.391       .  S
Zr345       O347   2.436       .  S
Zr345       O369   2.439       .  S
Zr345       O371   2.406       .  S
Zr345       O349   2.392       .  S
Zr345       O352   2.389   1_565  S
Zr346       O372   2.434       .  S
Zr346       O373   2.434       .  S
Zr346       O348   2.436       .  S
Zr346       O349   2.393       .  S
Zr346       O350   2.393   1_565  S
O347        H384   0.990       .  S
O348        H379   0.990       .  S
O348        H393   0.989       .  S
O350        H376   0.966       .  S
O351       Zr361   2.370       .  S
O352       Zr361   2.381       .  S
O352        H377   0.966       .  S
C353        C441   1.490       .  S
C354        C573   1.487       .  S
C355        C397   1.479       .  S
O356        H392   0.990       .  S
O357        C359   1.283       .  A
O358        C359   1.287       .  A
C359        C606   1.484       .  S
O360       Zr361   2.434       .  S
O360        H389   0.990       .  S
Zr361       O364   2.437       .  S
Zr361       O365   2.435       .  S
Zr361       O366   2.437       .  S
O362        C367   1.285       .  A
O363        H380   0.990       .  S
O363        H395   0.990       .  S
O364        H381   0.990       .  S
O365        H385   0.990       .  S
O365        H394   0.990       .  S
O366        C367   1.286       .  A
C367        C474   1.491       .  S
O368        H387   0.990       .  S
O368        H391   0.990       .  S
O369        H383   0.990       .  S
O369        H390   0.990       .  S
O370        C374   1.288       .  A
O371        C374   1.280   1_565  A
O372        H382   0.990       .  S
O373        H386   0.990   1_565  S
C374        C419   1.482       .  S
C397        C398   1.407       .  A
C397        C402   1.408   1_565  A
C398        C399   1.399       .  A
C398        H411   1.083       .  S
C399        C400   1.400       .  A
C399        H412   1.084       .  S
C400        C401   1.397   1_565  A
C400        C403   1.436       .  S
C401        C402   1.395       .  A
C401        H413   1.084       .  S
C402        H414   1.083       .  S
C403        C404   1.204       .  T
C404        C405   1.436       .  S
C405        C406   1.401   1_565  A
C405        C410   1.395       .  A
C406        C407   1.401       .  A
C406        H415   1.083       .  S
C407        C408   1.407       .  A
C407        H416   1.083       .  S
C408        C409   1.411   1_545  A
C409        C410   1.393       .  A
C409        H417   1.083       .  S
C410        H418   1.084       .  S
C419        C420   1.410   1_545  A
C419        C424   1.406       .  A
C420        C421   1.394       .  A
C420        H433   1.083       .  S
C421        C422   1.396   1_565  A
C421        H434   1.084       .  S
C422        C423   1.402       .  A
C422        C425   1.437       .  S
C423        C424   1.402       .  A
C423        H435   1.083       .  S
C424        H436   1.083       .  S
C425        C426   1.204   1_545  T
C426        C427   1.437       .  S
C427        C428   1.396   1_565  A
C427        C432   1.401       .  A
C428        C429   1.394       .  A
C428        H437   1.084       .  S
C429        C430   1.410   1_545  A
C429        H438   1.083       .  S
C430        C431   1.406       .  A
C431        C432   1.400       .  A
C431        H439   1.083       .  S
C432        H440   1.083       .  S
C441        C442   1.409       .  A
C441        C446   1.410       .  A
C442        C443   1.399       .  A
C442        H455   1.083       .  S
C443        C444   1.399       .  A
C443        H456   1.084       .  S
C444        C445   1.401       .  A
C444        C447   1.444       .  S
C445        C446   1.402       .  A
C445        H457   1.083       .  S
C446        H458   1.083       .  S
C447        C448   1.209       .  T
C448        C449   1.444       .  S
C449        C450   1.400       .  A
C449        C454   1.400       .  A
C450        C451   1.399       .  A
C450        H459   1.084       .  S
C451        C452   1.409       .  A
C451        H460   1.083       .  S
C452        C453   1.408       .  A
C453        C454   1.400       .  A
C453        H461   1.083       .  S
C454        H462   1.083       .  S
C463        C464   1.411       .  A
C463        C468   1.408       .  A
C464        C465   1.401       .  A
C464        H477   1.083       .  S
C465        C466   1.400       .  A
C465        H478   1.083       .  S
C466        C467   1.401       .  A
C466        C469   1.447       .  S
C467        C468   1.401       .  A
C467        H479   1.083       .  S
C468        H480   1.083       .  S
C469        C470   1.210       .  T
C470        C471   1.447       .  S
C471        C472   1.401       .  A
C471        C476   1.400       .  A
C472        C473   1.403       .  A
C472        H481   1.083       .  S
C473        C474   1.410       .  A
C473        H482   1.083       .  S
C474        C475   1.409       .  A
C475        C476   1.400       .  A
C475        H483   1.083       .  S
C476        H484   1.084       .  S
C485        C486   1.409       .  A
C485        C490   1.408   1_655  A
C486        C487   1.399       .  A
C486        H499   1.083       .  S
C487        C488   1.400       .  A
C487        H500   1.083       .  S
C488        C489   1.401   1_655  A
C488        C491   1.445       .  S
C489        C490   1.400       .  A
C489        H501   1.083       .  S
C490        H502   1.083       .  S
C491        C492   1.209       .  T
C492        C493   1.446       .  S
C493        C494   1.400   1_655  A
C493        C498   1.400       .  A
C494        C495   1.401       .  A
C494        H503   1.083       .  S
C495        C496   1.409   1_455  A
C495        H504   1.083       .  S
C496        C497   1.410       .  A
C497        C498   1.402       .  A
C497        H505   1.083       .  S
C498        H506   1.084       .  S
C507        C508   1.407       .  A
C507        C512   1.410   1_655  A
C508        C509   1.398       .  A
C508        H521   1.083       .  S
C509        C510   1.399       .  A
C509        H522   1.084       .  S
C510        C511   1.397   1_655  A
C510        C513   1.436       .  S
C511        C512   1.397       .  A
C511        H523   1.084       .  S
C512        H524   1.083       .  S
C513        C514   1.203       .  T
C514        C515   1.435       .  S
C515        C516   1.400   1_655  A
C515        C520   1.397       .  A
C516        C517   1.399       .  A
C516        H525   1.083       .  S
C517        C518   1.407       .  A
C517        H526   1.083       .  S
C518        C519   1.410   1_455  A
C519        C520   1.395       .  A
C519        H527   1.083       .  S
C520        H528   1.084       .  S
C529        C530   1.409       .  A
C529        C534   1.409   1_554  A
C530        C531   1.400       .  A
C530        H543   1.083       .  S
C531        C532   1.400       .  A
C531        H544   1.083       .  S
C532        C533   1.399   1_554  A
C532        C535   1.441       .  S
C533        C534   1.398       .  A
C533        H545   1.084       .  S
C534        H546   1.083       .  S
C535        C536   1.207       .  T
C536        C537   1.441       .  S
C537        C538   1.400       .  A
C537        C542   1.399       .  A
C538        C539   1.400       .  A
C538        H547   1.083       .  S
C539        C540   1.410       .  A
C539        H548   1.083       .  S
C540        C541   1.408       .  A
C541        C542   1.398       .  A
C541        H549   1.083   1_554  S
C542        H550   1.084   1_554  S
C551        C552   1.408       .  A
C551        C556   1.409       .  A
C552        C553   1.402       .  A
C552        H565   1.083       .  S
C553        C554   1.402       .  A
C553        H566   1.083       .  S
C554        C555   1.396       .  A
C554        C557   1.439       .  S
C555        C556   1.393       .  A
C555        H567   1.084   1_556  S
C556        H568   1.083   1_556  S
C557        C558   1.206       .  T
C558        C559   1.440       .  S
C559        C560   1.397       .  A
C559        C564   1.401   1_556  A
C560        C561   1.397       .  A
C560        H569   1.084       .  S
C561        C562   1.409       .  A
C561        H570   1.083       .  S
C562        C563   1.409   1_556  A
C563        C564   1.401       .  A
C563        H571   1.083       .  S
C564        H572   1.084       .  S
C573        C574   1.408       .  A
C573        C578   1.410       .  A
C574        C575   1.402       .  A
C574        H587   1.083       .  S
C575        C576   1.401       .  A
C575        H588   1.083       .  S
C576        C577   1.397       .  A
C576        C579   1.440       .  S
C577        C578   1.396       .  A
C577        H589   1.084       .  S
C578        H590   1.083       .  S
C579        C580   1.206       .  T
C580        C581   1.440       .  S
C581        C582   1.401       .  A
C581        C586   1.397       .  A
C582        C583   1.400       .  A
C582        H591   1.083       .  S
C583        C584   1.407       .  A
C583        H592   1.083       .  S
C584        C585   1.409       .  A
C585        C586   1.395       .  A
C585        H593   1.083       .  S
C586        H594   1.084       .  S
C595        C596   1.408       .  A
C595        C600   1.407       .  A
C596        C597   1.397       .  A
C596        H609   1.083       .  S
C597        C598   1.398       .  A
C597        H610   1.084       .  S
C598        C599   1.400       .  A
C598        C601   1.438       .  S
C599        C600   1.398       .  A
C599        H611   1.083       .  S
C600        H612   1.083       .  S
C601        C602   1.205       .  T
C602        C603   1.438       .  S
C603        C604   1.398       .  A
C603        C608   1.400       .  A
C604        C605   1.397       .  A
C604        H613   1.084       .  S
C605        C606   1.409       .  A
C605        H614   1.083       .  S
C606        C607   1.408       .  A
C607        C608   1.399       .  A
C607        H615   1.083       .  S
C608        H616   1.083       .  S
C617        C618   1.406       .  A
C617        C622   1.407       .  A
C618        C619   1.397       .  A
C618        H631   1.083       .  S
C619        C620   1.399       .  A
C619        H632   1.084       .  S
C620        C621   1.398       .  A
C620        C623   1.433       .  S
C621        C622   1.395       .  A
C621        H633   1.084       .  S
C622        H634   1.083       .  S
C623        C624   1.202       .  T
C624        C625   1.433       .  S
C625        C626   1.396       .  A
C625        C630   1.399       .  A
C626        C627   1.394       .  A
C626        H635   1.084       .  S
C627        C628   1.408       .  A
C627        H636   1.083       .  S
C628        C629   1.408       .  A
C629        C630   1.398       .  A
C629        H637   1.083       .  S
C630        H638   1.083       .  S
C639        C640   1.409       .  A
C639        C644   1.407       .  A
C640        C641   1.395       .  A
C640        H653   1.083       .  S
C641        C642   1.397       .  A
C641        H654   1.084       .  S
C642        C643   1.399       .  A
C642        C645   1.433       .  S
C643        C644   1.398       .  A
C643        H655   1.084       .  S
C644        H656   1.083       .  S
C645        C646   1.202       .  T
C646        C647   1.432       .  S
C647        C648   1.396       .  A
C647        C652   1.399       .  A
C648        C649   1.393       .  A
C648        H657   1.084       .  S
C649        C650   1.408       .  A
C649        H658   1.083       .  S
C650        C651   1.407       .  A
C651        C652   1.397       .  A
C651        H659   1.083       .  S
C652        H660   1.083       .  S
C661        C662   1.410       .  A
C661        C666   1.408       .  A
C662        C663   1.403       .  A
C662        H675   1.083       .  S
C663        C664   1.402       .  A
C663        H676   1.084       .  S
C664        C665   1.399       .  A
C664        C667   1.446       .  S
C665        C666   1.399       .  A
C665        H677   1.083       .  S
C666        H678   1.083       .  S
C667        C668   1.210       .  T
C668        C669   1.447       .  S
C669        C670   1.401       .  A
C669        C674   1.400       .  A
C670        C671   1.402       .  A
C670        H679   1.083       .  S
C671        C672   1.409       .  A
C671        H680   1.083       .  S
C672        C673   1.409       .  A
C673        C674   1.400       .  A
C673        H681   1.083       .  S
C674        H682   1.083       .  S
C683        C684   1.409       .  A
C683        C688   1.410       .  A
C684        C685   1.400       .  A
C684        H697   1.083       .  S
C685        C686   1.399       .  A
C685        H698   1.084       .  S
C686        C687   1.400       .  A
C686        C689   1.444       .  S
C687        C688   1.401       .  A
C687        H699   1.084       .  S
C688        H700   1.083       .  S
C689        C690   1.208       .  T
C690        C691   1.443       .  S
C691        C692   1.398       .  A
C691        C696   1.402       .  A
C692        C693   1.397       .  A
C692        H701   1.084       .  S
C693        C694   1.410       .  A
C693        H702   1.083       .  S
C694        C695   1.408       .  A
C695        C696   1.401       .  A
C695        H703   1.083       .  S
C696        H704   1.083       .  S
C705        C706   1.408       .  A
C705        C710   1.410   1_554  A
C706        C707   1.402       .  A
C706        H719   1.083       .  S
C707        C708   1.402       .  A
C707        H720   1.083       .  S
C708        C709   1.396   1_554  A
C708        C711   1.439       .  S
C709        C710   1.394       .  A
C709        H721   1.084       .  S
C710        H722   1.083       .  S
C711        C712   1.205   1_554  T
C712        C713   1.439       .  S
C713        C714   1.401       .  A
C713        C718   1.397   1_556  A
C714        C715   1.399       .  A
C714        H723   1.083       .  S
C715        C716   1.407       .  A
C715        H724   1.083       .  S
C716        C717   1.409   1_556  A
C717        C718   1.396       .  A
C717        H725   1.083       .  S
C718        H726   1.084       .  S
C727        C728   1.409   1_556  A
C727        C732   1.408       .  A
C728        C729   1.394       .  A
C728        H741   1.083       .  S
C729        C730   1.397   1_554  A
C729        H742   1.084       .  S
C730        C731   1.400       .  A
C730        C733   1.435       .  S
C731        C732   1.399       .  A
C731        H743   1.083       .  S
C732        H744   1.083       .  S
C733        C734   1.203       .  T
C734        C735   1.435       .  S
C735        C736   1.397       .  A
C735        C740   1.399   1_556  A
C736        C737   1.396       .  A
C736        H745   1.084       .  S
C737        C738   1.410       .  A
C737        H746   1.083       .  S
C738        C739   1.407   1_556  A
C739        C740   1.397       .  A
C739        H747   1.083       .  S
C740        H748   1.084       .  S
C749        C750   1.407   1_554  A
C749        C754   1.409       .  A
C750        C751   1.393       .  A
C750        H763   1.083       .  S
C751        C752   1.397   1_556  A
C751        H764   1.084       .  S
C752        C753   1.400       .  A
C752        C755   1.434       .  S
C753        C754   1.399       .  A
C753        H765   1.083       .  S
C754        H766   1.083       .  S
C755        C756   1.203       .  T
C756        C757   1.434   1_554  S
C757        C758   1.401       .  A
C757        C762   1.395   1_556  A
C758        C759   1.400       .  A
C758        H767   1.083       .  S
C759        C760   1.408       .  A
C759        H768   1.083       .  S
C760        C761   1.409   1_556  A
C761        C762   1.392       .  A
C761        H769   1.083       .  S
C762        H770   1.084       .  S
C771        C772   1.408   1_556  A
C771        C776   1.406       .  A
C772        C773   1.389       .  A
C772        H785   1.083       .  S
C773        C774   1.395   1_554  A
C773        H786   1.084       .  S
C774        C775   1.400       .  A
C774        C777   1.429       .  S
C775        C776   1.398       .  A
C775        H787   1.083       .  S
C776        H788   1.083       .  S
C777        C778   1.200       .  T
C778        C779   1.430   1_556  S
C779        C780   1.399       .  A
C779        C784   1.397   1_554  A
C780        C781   1.397       .  A
C780        H789   1.084       .  S
C781        C782   1.405       .  A
C781        H790   1.083       .  S
C782        C783   1.406       .  A
C783        C784   1.393   1_554  A
C783        H791   1.083       .  S
C784        H792   1.084       .  S
