geometry optimzed in LAMMPS
_audit_creation_date              2020-11-30 
_audit_creation_method            'lammps2cif' 
_symmetry_space_group_name_H-M    'P1' 
_symmetry_Int_Tables_number       1 
_symmetry_cell_setting            triclinic 
loop_ 
_symmetry_equiv_pos_as_xyz 
  x,y,z 
_cell_length_a                    47.34683193 
_cell_length_b                    50.23333798407534 
_cell_length_c                    26.3458822263279 
_cell_angle_alpha                 74.52024560550672 
_cell_angle_beta                  88.13716839175798 
_cell_angle_gamma                 114.45571178482965 
loop_ 
_atom_site_label 
_atom_site_type_symbol 
_atom_site_fract_x 
_atom_site_fract_y 
_atom_site_fract_z 
_atom_site_charge 
O1          O  0.24918655  0.28298032  0.85883489    -0.81700
O2          O  0.23058225  0.25438255  0.10968547    -0.66400
O3          O  0.26464080  0.27717356  0.96327683    -1.13000
C4          C  0.23336765  0.17037864  0.99574226     1.05200
O5          O  0.24863677  0.21946947  0.13814345    -0.79600
O6          O  0.28673295  0.21708302  0.06306983    -0.67200
Ni7        Ni  0.25550912  0.30552651  0.90986534     1.34900
C8          C  0.30244645  0.23035784  0.01625029     0.83900
O9          O  0.26231820  0.30833636  0.03670282    -0.80200
O10         O  0.26092394  0.33239253  0.95313181    -0.90400
C11         C  0.23960735  0.23887203  0.14578999     0.83500
O12         O  0.21145291  0.28584050  0.93332669    -0.68600
O13         O  0.23713575  0.17015564  0.04355326    -0.87900
C14         C  0.19564682  0.27435240  0.97999104     0.84300
C15         C  0.26353095  0.33184414  0.00136058     1.05900
H16         H  0.20953564  0.21577435  0.03711469     0.37700
O17         O  0.23217910  0.22497083  0.03434943    -1.10600
O18         O  0.29023890  0.23705701  0.97522080    -0.67200
Ni19       Ni  0.24982707  0.23568759  0.96142794     1.26300
O20         O  0.20670834  0.26634492  0.02193067    -0.67500
O21         O  0.23441533  0.19389074  0.96071372    -0.79800
C22         C  0.25828552  0.26360335  0.85138022     0.83700
O23         O  0.26657236  0.24773489  0.88811131    -0.66900
Ni24       Ni  0.24248487  0.19695682  0.08700283     1.27400
Ni25       Ni  0.24690066  0.26652530  0.03610423     1.26100
H26         H  0.28723947  0.28622169  0.96099708     0.38200
O27         O  0.24088810  0.27755281  0.36012777    -0.81700
O28         O  0.24808760  0.26279888  0.60649390    -0.66400
O29         O  0.26532794  0.27731306  0.45666207    -1.13000
C30         C  0.24206337  0.17230910  0.50075317     1.05200
O31         O  0.26416482  0.22637668  0.63530673    -0.79600
O32         O  0.30077071  0.23144693  0.54866018    -0.67200
Ni33       Ni  0.24624706  0.29974819  0.41142655     1.34900
C34         C  0.31140202  0.23999093  0.49925436     0.83900
O35         O  0.27231798  0.31332059  0.52383702    -0.80200
O36         O  0.25034449  0.32670481  0.45427810    -0.90400
C37         C  0.25626469  0.24649092  0.64273997     0.83500
O38         O  0.20481027  0.27189554  0.44797812    -0.68600
O39         O  0.25483573  0.17748745  0.54105487    -0.87900
C40         C  0.19495481  0.26373054  0.49761185     0.84300
C41         C  0.26412324  0.33223970  0.49359061     1.05900
H42         H  0.21854098  0.21715266  0.54760871     0.37700
O43         O  0.24111479  0.22768483  0.53704893    -1.10600
O44         O  0.29382940  0.23943609  0.46328775    -0.67200
Ni45       Ni  0.25078765  0.23470311  0.46207600     1.26300
O46         O  0.21332803  0.26587717  0.53227409    -0.67500
O47         O  0.23520873  0.19180324  0.46887851    -0.79800
C48         C  0.24968050  0.25813740  0.35187760     0.83700
O49         O  0.25937845  0.24272668  0.38698692    -0.66900
Ni50       Ni  0.25892825  0.20443605  0.58366639     1.27400
Ni51       Ni  0.25627756  0.27041282  0.53154156     1.26100
H52         H  0.28783581  0.28821293  0.44530221     0.38200
O53         O  0.46746718  0.22502497  0.13823298    -0.81700
O54         O  0.48059335  0.24804227  0.88973664    -0.66400
O55         O  0.48960421  0.22582087  0.03625649    -1.13000
C56         C  0.05872433  0.33185536  0.99957240     1.05200
O57         O  0.03035632  0.28231996  0.85975408    -0.79600
O58         O  0.06930735  0.28645875  0.93170493    -0.67200
Ni59       Ni  0.45282309  0.20091813  0.08982471     1.34900
C60         C  0.07303954  0.27346192  0.97762881     0.83900
O61         O  0.46053184  0.19421834  0.96565290    -0.80200
O62         O  0.43410537  0.17308451  0.04901906    -0.90400
C63         C  0.00404893  0.26367072  0.85264710     0.83500
O64         O  0.42868651  0.22261318  0.06375195    -0.68600
O65         O  0.06041286  0.33322849  0.95055131    -0.87900
C66         C  0.42587895  0.23439664  0.01626985     0.84300
C67         C  0.43919799  0.17181763  0.00206065     1.05900
H68         H  0.99345040  0.28754374  0.96342425     0.37700
O69         O  0.00746470  0.27793395  0.96445824    -1.10600
O70         O  0.05312879  0.26398340  0.01985969    -0.67200
Ni71       Ni  0.01448468  0.26692196  0.03684857     1.26300
O72         O  0.44514098  0.23961212  0.97595438    -0.67500
O73         O  0.03924536  0.30840195  0.03668817    -0.79800
C74         C  0.49515477  0.23923671  0.14726004     0.83700
O75         O  0.01870672  0.25369888  0.11009858    -0.66900
Ni76       Ni  0.04277090  0.30563085  0.90922502     1.27400
Ni77       Ni  0.48393396  0.23634609  0.96356589     1.26100
H78         H  0.50257156  0.21500967  0.03968414     0.38200
O79         O  0.46817074  0.23940690  0.62954641    -0.81700
O80         O  0.48005835  0.22999963  0.39969037    -0.66400
O81         O  0.48580079  0.22053596  0.54738666    -1.13000
C82         C  0.06983622  0.32126018  0.47707727     1.05200
O83         O  0.03121817  0.24586499  0.38160751    -0.79600
O84         O  0.07213611  0.26150026  0.45078750    -0.67200
Ni85       Ni  0.44979303  0.20617200  0.59964737     1.34900
C86         C  0.07105548  0.25039478  0.50055589     0.83900
O87         O  0.44840871  0.18362615  0.48937488    -0.80200
O88         O  0.42834244  0.17125523  0.57558865    -0.90400
C89         C  0.00435380  0.23721141  0.36713062     0.83500
O90         O  0.42833322  0.22703149  0.55841825    -0.68600
O91         O  0.06927840  0.31593417  0.43225295    -0.87900
C92         C  0.42930031  0.23775490  0.50857946     0.84300
C93         C  0.42829839  0.16556468  0.53123946     1.05900
H94         H  0.00390095  0.27938800  0.45169827     0.37700
O95         O  0.01314240  0.26525092  0.46238447    -1.10600
O96         O  0.04977201  0.24681557  0.53592968    -0.67200
Ni97       Ni  0.01792726  0.26135182  0.53516031     1.26300
O98         O  0.44937310  0.23920472  0.47334796    -0.67500
O99         O  0.05062044  0.30250743  0.51970748    -0.79800
C100        C  0.49543407  0.24926415  0.64232924     0.83700
O101        O  0.01942522  0.25580672  0.60974738    -0.66900
Ni102      Ni  0.04894942  0.28016779  0.40950860     1.27400
Ni103      Ni  0.48114410  0.22446135  0.47440295     1.26100
H104        H  0.49487932  0.20628430  0.55843206     0.38800
O105        O  0.25291523  0.02927762  0.86423859    -0.81700
O106        O  0.26228250  0.02359571  0.10116704    -0.66400
O107        O  0.27234477  0.01383793  0.96337208    -1.13000
C108        C  0.17021628  0.43074750  0.02726134     1.05200
O109        O  0.24699374  0.47388300  0.13838623    -0.79600
O110        O  0.23787879  0.43437947  0.08203571    -0.67200
Ni111      Ni  0.28683759  0.04839877  0.90023759     1.34900
C112        C  0.24706569  0.43355790  0.03699205     0.83900
O113        O  0.31111501  0.05254819  0.01856862    -0.80200
O114        O  0.32296968  0.07006855  0.92928667    -0.90400
C115        C  0.25404292  0.50034723  0.14288071     0.83500
O116        O  0.26487599  0.06976017  0.92022033    -0.68600
O117        O  0.17810996  0.42963713  0.07347656    -0.87900
C118        C  0.25378016  0.06978245  0.96473893     0.84300
C119        C  0.33008144  0.07082133  0.97526229     1.05900
H120        H  0.21208355  0.49680749  0.04141684     0.37700
O121        O  0.22690712  0.48822843  0.04064023    -1.10600
O122        O  0.24464805  0.45063326  0.99361820    -0.67200
Ni123      Ni  0.23024053  0.48228585  0.97253194     1.26300
O124        O  0.25379963  0.05137207  0.00847512    -0.67500
O125        O  0.18766478  0.45114289  0.98437660    -0.79800
C126        C  0.24374836  0.00230166  0.86089761     0.83700
O127        O  0.23545151  0.47917614  0.90240102    -0.66900
Ni128      Ni  0.21351244  0.45321642  0.10288035     1.27400
Ni129      Ni  0.26864271  0.02035900  0.03106930     1.26100
H130        H  0.28679127  0.00475127  0.96377345     0.38200
O131        O  0.25685192  0.03427217  0.36946010    -0.81700
O132        O  0.25064397  0.01064956  0.61088588    -0.66400
O133        O  0.27032866  0.01066749  0.47013763    -1.13000
C134        C  0.17393000  0.42484928  0.50722574     1.05200
O135        O  0.23107810  0.46034451  0.64671448    -0.79600
O136        O  0.24348902  0.43566768  0.57315905    -0.67200
Ni137      Ni  0.28882283  0.04829857  0.41260911     1.34900
C138        C  0.25082491  0.43444169  0.52742914     0.83900
O139        O  0.30149808  0.04373761  0.53728526    -0.80200
O140        O  0.32251766  0.06541392  0.45015840    -0.90400
C141        C  0.24132558  0.48735476  0.65077336     0.83500
O142        O  0.26829446  0.06981469  0.43554289    -0.68600
O143        O  0.18218923  0.41858565  0.55291181    -0.87900
C144        C  0.25079972  0.06488423  0.47778028     0.84300
C145        C  0.32353493  0.06349680  0.49925999     1.05900
H146        H  0.20471849  0.48693503  0.54314654     0.37700
O147        O  0.22090426  0.48012558  0.54072218    -1.10600
O148        O  0.24389894  0.44882891  0.48600043    -0.67200
Ni149      Ni  0.22973021  0.48076452  0.46908817     1.26300
O150        O  0.24441203  0.04162350  0.51826653    -0.67500
O151        O  0.18837717  0.45062157  0.47111088    -0.79800
C152        C  0.24837259  0.00908825  0.35886031     0.83700
O153        O  0.23997299  0.48396843  0.39638980    -0.66900
Ni154      Ni  0.20846604  0.44188376  0.59554527     1.27400
Ni155      Ni  0.26096469  0.01179141  0.53985482     1.26100
H156        H  0.28483358  0.00158586  0.47152898     0.38200
C157        C  0.21371448  0.47863535  0.74016679    -0.02700
C158        C  0.24213432  0.49098314  0.70461660     0.07000
C159        C  0.27091572  0.00623678  0.72096991    -0.02800
C160        C  0.27134520  0.00961742  0.77239376    -0.02800
C161        C  0.24292061  0.99782934  0.80768153     0.07100
C162        C  0.21402851  0.48218370  0.79142256    -0.03000
Br163      Br  0.17500298  0.46679320  0.83855480    -0.01500
Br164      Br  0.17413911  0.45815386  0.71752632    -0.01600
Br165      Br  0.31098479  0.02933553  0.79552437    -0.01600
Br166      Br  0.30993423  0.02243669  0.67303976    -0.01500
C167        C  0.27532215  0.02907495  0.20964766    -0.02700
C168        C  0.25227417  0.50378958  0.19739929     0.07000
C169        C  0.22627531  0.48209200  0.23763673    -0.02800
C170        C  0.22420935  0.48511234  0.28914824    -0.02800
C171        C  0.24850091  0.00875793  0.30247750     0.07100
C172        C  0.27409270  0.03096041  0.26217258    -0.03000
Br173      Br  0.30891965  0.06308913  0.27897097    -0.01500
Br174      Br  0.31040903  0.06021589  0.15583710    -0.01600
Br175      Br  0.18614566  0.45810805  0.34029254    -0.01600
Br176      Br  0.19250135  0.44816799  0.22298491    -0.01500
C177        C  0.09050548  0.36899210  0.50599788    -0.02700
C178        C  0.09597321  0.34977592  0.48038765     0.07000
C179        C  0.12727263  0.35657458  0.46108497    -0.02800
C180        C  0.15265422  0.38163002  0.46890705    -0.02800
C181        C  0.14712146  0.40031114  0.49533733     0.07100
C182        C  0.11610523  0.39430488  0.51317869    -0.03000
Br183      Br  0.10899258  0.42085811  0.54772353    -0.01500
Br184      Br  0.04811556  0.36122366  0.53025134    -0.01600
Br185      Br  0.19525865  0.38951131  0.44562411    -0.01600
Br186      Br  0.13627647  0.33053703  0.42724446    -0.01500
C187        C  0.37087011  0.13039428  0.54803305    -0.02700
C188        C  0.40202334  0.13735850  0.52759565     0.07000
C189        C  0.40728690  0.11859899  0.50059082    -0.02800
C190        C  0.38164797  0.09324423  0.49382240    -0.02800
C191        C  0.35069081  0.08712139  0.51243845     0.07100
C192        C  0.34539869  0.10565036  0.53981702    -0.03000
Br193      Br  0.30311311  0.09925853  0.56194975    -0.01500
Br194      Br  0.36199711  0.15605162  0.58331252    -0.01600
Br195      Br  0.38889098  0.06639062  0.46019842    -0.01600
Br196      Br  0.44950039  0.12724958  0.47300217    -0.01500
C197        C  0.48630413  0.27362900  0.76437046    -0.02700
C198        C  0.00145412  0.25962292  0.79934592     0.07000
C199        C  0.01567409  0.24308753  0.78236718    -0.02800
C200        C  0.01410637  0.23995103  0.73079001    -0.02800
C201        C  0.49884485  0.25395950  0.69548902     0.07100
C202        C  0.48497615  0.27083050  0.71265316    -0.03000
Br203      Br  0.46510609  0.29129620  0.66496656    -0.01500
Br204      Br  0.46848918  0.29773826  0.78687825    -0.01600
Br205      Br  0.03101985  0.21468130  0.71022364    -0.01600
Br206      Br  0.03686625  0.22433583  0.83049016    -0.01500
C207        C  0.48938241  0.25549872  0.27880580    -0.02700
C208        C  0.00179207  0.23699653  0.31109877     0.07000
C209        C  0.01344829  0.22024633  0.28838672    -0.02800
C210        C  0.01170074  0.22129497  0.23446044    -0.02800
C211        C  0.49933364  0.23985810  0.20247617     0.07100
C212        C  0.48887627  0.25745331  0.22451461    -0.03000
Br213      Br  0.47531694  0.28549327  0.17932169    -0.01500
Br214      Br  0.47403154  0.27924823  0.30828786    -0.01600
Br215      Br  0.02526167  0.19660058  0.20445052    -0.01600
Br216      Br  0.03053629  0.19479862  0.33150154    -0.01500
C217        C  0.09056353  0.38852900  0.98721273    -0.02700
C218        C  0.08351950  0.35753660  0.01383616     0.07000
C219        C  0.10430409  0.35105674  0.04682677    -0.02800
C220        C  0.13286710  0.37494720  0.04937771    -0.02800
C221        C  0.13979538  0.40595545  0.02355832     0.07100
C222        C  0.11799754  0.41264983  0.99361718    -0.03000
Br223      Br  0.12521578  0.45475495  0.96240789    -0.01500
Br224      Br  0.06260841  0.39795554  0.94193375    -0.01600
Br225      Br  0.16421414  0.36449288  0.08251724    -0.01600
Br226      Br  0.09554776  0.30917781  0.08544863    -0.01500
C227        C  0.37724553  0.12318017  0.93581443    -0.02700
C228        C  0.36178600  0.09482566  0.97774398     0.07000
C229        C  0.37722076  0.08984038  0.02191922    -0.02800
C230        C  0.40353938  0.11454668  0.02941372    -0.02800
C231        C  0.41732357  0.14357432  0.98943143     0.07100
C232        C  0.40630473  0.14600912  0.93996059    -0.03000
Br233      Br  0.43118094  0.17934355  0.87631964    -0.01500
Br234      Br  0.35851441  0.13331893  0.87363908    -0.01600
Br235      Br  0.42153953  0.10774651  0.09363404    -0.01600
Br236      Br  0.36434492  0.04880871  0.06988226    -0.01500
C237        C  0.27880428  0.38894017  0.46227055    -0.02700
C238        C  0.26929409  0.36140607  0.50488027     0.07000
C239        C  0.26283398  0.36180547  0.55743725    -0.02800
C240        C  0.26106727  0.38767553  0.56612352    -0.02800
C241        C  0.26470290  0.41307409  0.52207042     0.07100
C242        C  0.27706523  0.41479076  0.47091239    -0.03000
Br243      Br  0.29315398  0.45284011  0.41254642    -0.01500
Br244      Br  0.29494373  0.39167137  0.39175000    -0.01600
Br245      Br  0.25384843  0.38733007  0.63913678    -0.01600
Br246      Br  0.25414498  0.32644453  0.61839640    -0.01500
C247        C  0.22508883  0.11540034  0.53547553    -0.02700
C248        C  0.23605919  0.14241058  0.49144683     0.07000
C249        C  0.24360278  0.14072126  0.44043490    -0.02800
C250        C  0.24501964  0.11400034  0.43505324    -0.02800
C251        C  0.23968227  0.08873124  0.48099430     0.07100
C252        C  0.22693512  0.08878903  0.53073362    -0.03000
Br253      Br  0.21194993  0.05335335  0.59417954    -0.01500
Br254      Br  0.20625064  0.11453529  0.60262844    -0.01600
Br255      Br  0.25346624  0.11271778  0.36343487    -0.01600
Br256      Br  0.25309090  0.17507968  0.37722685    -0.01500
C257        C  0.15007424  0.26831341  0.54191245    -0.02700
C258        C  0.16082939  0.25285994  0.51439557     0.07000
C259        C  0.13892199  0.23004326  0.49559399    -0.02800
C260        C  0.10788825  0.22667723  0.49544987    -0.02800
C261        C  0.09813101  0.24475000  0.51736863     0.07100
C262        C  0.11842265  0.26332253  0.54517288    -0.03000
Br263      Br  0.10407363  0.28452943  0.58330939    -0.01500
Br264      Br  0.17913202  0.29927776  0.56916170    -0.01600
Br265      Br  0.07888259  0.19798066  0.46413959    -0.01600
Br266      Br  0.15170057  0.20357420  0.47006607    -0.01500
C267        C  0.36754432  0.26707191  0.51008890    -0.02700
C268        C  0.34530260  0.24841640  0.48490650     0.07000
C269        C  0.35459626  0.23276501  0.45567859    -0.02800
C270        C  0.38372691  0.23158648  0.45924261    -0.02800
C271        C  0.40395537  0.24652015  0.49146570     0.07100
C272        C  0.39660504  0.26583214  0.51396622    -0.03000
Br273      Br  0.42615656  0.29020048  0.55076235    -0.01500
Br274      Br  0.35811029  0.29460557  0.53849635    -0.01600
Br275      Br  0.39374659  0.20631136  0.42493744    -0.01600
Br276      Br  0.32672355  0.21070969  0.41412295    -0.01500
C277        C  0.28544953  0.26278111  0.76897452    -0.02700
C278        C  0.25781789  0.25866099  0.79851857     0.07000
C279        C  0.22951808  0.24994916  0.77729473    -0.02800
C280        C  0.22913272  0.24659893  0.72589298    -0.02800
C281        C  0.25684618  0.25100573  0.69604700     0.07100
C282        C  0.28495221  0.25892964  0.71794220    -0.03000
Br283      Br  0.32331741  0.26599521  0.67722574    -0.01500
Br284      Br  0.32427736  0.27462092  0.79767936    -0.01600
Br285      Br  0.19026115  0.23474406  0.69731985    -0.01600
Br286      Br  0.19069336  0.24033187  0.82028384    -0.01500
C287        C  0.21881285  0.22298337  0.24279079    -0.02700
C288        C  0.24135705  0.24443529  0.19802553     0.07000
C289        C  0.26675120  0.27039835  0.20385152    -0.02800
C290        C  0.27008293  0.27435410  0.25459857    -0.02800
C291        C  0.24749519  0.25291243  0.29936780     0.07100
C292        C  0.22162713  0.22746343  0.29323218    -0.03000
Br293      Br  0.18949023  0.19925267  0.35359467    -0.01500
Br294      Br  0.18365167  0.18793728  0.23451335    -0.01600
Br295      Br  0.30593784  0.30873911  0.26318710    -0.01600
Br296      Br  0.29708635  0.30056720  0.14244650    -0.01500
C297        C  0.28227583  0.38930293  0.97978062    -0.02700
C298        C  0.26614217  0.35944679  0.01669710     0.07000
C299        C  0.24991971  0.35617612  0.06586492    -0.02800
C300        C  0.24839323  0.38184462  0.07603051    -0.02800
C301        C  0.25893163  0.41019439  0.03442116     0.07100
C302        C  0.27796140  0.41423738  0.98767181    -0.03000
Br303      Br  0.29999270  0.45431159  0.93509230    -0.01500
Br304      Br  0.31119144  0.39648979  0.91863543    -0.01600
Br305      Br  0.23250999  0.37720709  0.14813894    -0.01600
Br306      Br  0.22622993  0.31624873  0.11810350    -0.01500
C307        C  0.21611446  0.11319216  0.01971387    -0.02700
C308        C  0.22982785  0.14238514  0.98070449     0.07000
C309        C  0.24391544  0.14484152  0.93037497    -0.02800
C310        C  0.25085843  0.12096154  0.92384480    -0.02800
C311        C  0.24163228  0.09313310  0.96665950     0.07100
C312        C  0.22190321  0.08878947  0.01306651    -0.03000
Br313      Br  0.20162885  0.04947819  0.06842195    -0.01500
Br314      Br  0.18710444  0.10593378  0.08086932    -0.01600
Br315      Br  0.27462569  0.12850935  0.85607174    -0.01600
Br316      Br  0.25298962  0.18021709  0.86899244    -0.01500
C317        C  0.16117948  0.30070734  0.96155139    -0.02700
C318        C  0.16388699  0.27325723  0.98459557     0.07000
C319        C  0.13651799  0.24574435  0.00901069    -0.02800
C320        C  0.10650630  0.24547219  0.00803370    -0.02800
C321        C  0.10387472  0.27262329  0.98174656     0.07100
C322        C  0.13151888  0.30035545  0.95933306    -0.03000
Br323      Br  0.12962985  0.33888807  0.92670134    -0.01500
Br324      Br  0.19827302  0.33970716  0.93494588    -0.01600
Br325      Br  0.06916410  0.20771426  0.04042384    -0.01600
Br326      Br  0.14010329  0.20834520  0.04174534    -0.01500
C327        C  0.34885854  0.22869931  0.97028291    -0.02700
C328        C  0.33629400  0.23710951  0.00934832     0.07000
C329        C  0.35577947  0.25006590  0.04414950    -0.02800
C330        C  0.38601664  0.25113553  0.04423285    -0.02800
C331        C  0.39765191  0.24032212  0.00804441     0.07100
C332        C  0.37977472  0.23151276  0.96822106    -0.03000
Br333      Br  0.39641619  0.22232289  0.91089317    -0.01500
Br334      Br  0.32302399  0.21020514  0.92255328    -0.01600
Br335      Br  0.41194420  0.26872701  0.09268989    -0.01600
Br336      Br  0.34150573  0.26732314  0.09071821    -0.01500
O337        O  0.24942468  0.78320346  0.85810427    -0.81700
O338        O  0.23041522  0.75459273  0.10880910    -0.66400
O339        O  0.26479885  0.77744755  0.96254850    -1.13000
C340        C  0.23352526  0.67055606  0.99528815     1.05200
O341        O  0.24868094  0.71986451  0.13737742    -0.79600
O342        O  0.28672388  0.71712196  0.06263006    -0.67200
Ni343      Ni  0.25590403  0.80589474  0.90893794     1.34900
C344        C  0.30255193  0.73055517  0.01590207     0.83900
O345        O  0.26224403  0.80858235  0.03587585    -0.80200
O346        O  0.26143817  0.83284959  0.95208409    -0.90400
C347        C  0.23946787  0.73915426  0.14499702     0.83500
O348        O  0.21185343  0.78654384  0.93218130    -0.68600
O349        O  0.23700772  0.67030542  0.04319531    -0.87900
C350        C  0.19589388  0.77487458  0.97873620     0.84300
C351        C  0.26372252  0.83218590  0.00044479     1.05900
H352        H  0.20965205  0.71603695  0.03611523     0.37700
O353        O  0.23228619  0.72523549  0.03351826    -1.10600
O354        O  0.29047387  0.73743409  0.97480577    -0.67200
Ni355      Ni  0.25009688  0.73596672  0.96068110     1.26300
O356        O  0.20676045  0.76659690  0.02076386    -0.67500
O357        O  0.23486177  0.69414266  0.96003137    -0.79800
C358        C  0.25862186  0.76389185  0.85062947     0.83700
O359        O  0.26697608  0.74807729  0.88736336    -0.66900
Ni360      Ni  0.24245715  0.69721792  0.08642663     1.27400
Ni361      Ni  0.24690719  0.76677959  0.03527491     1.26100
H362        H  0.28738484  0.78649002  0.96046873     0.38200
O363        O  0.24032778  0.77749539  0.35977505    -0.81700
O364        O  0.24821547  0.76294617  0.60589058    -0.66400
O365        O  0.26514828  0.77746490  0.45600418    -1.13000
C366        C  0.24212199  0.67250720  0.50004483     1.05200
O367        O  0.26464264  0.72676683  0.63441650    -0.79600
O368        O  0.30098385  0.73172628  0.54755716    -0.67200
Ni369      Ni  0.24593381  0.79982077  0.41093149     1.34900
C370        C  0.31148902  0.74029951  0.49809394     0.83900
O371        O  0.27221116  0.81345815  0.52323857    -0.80200
O372        O  0.25027719  0.82690915  0.45363981    -0.90400
C373        C  0.25660013  0.74676710  0.64198941     0.83500
O374        O  0.20454627  0.77200718  0.44779754    -0.68600
O375        O  0.25488922  0.67766892  0.54036953    -0.87900
C376        C  0.19478242  0.76376792  0.49747905     0.84300
C377        C  0.26403132  0.83239312  0.49300852     1.05900
H378        H  0.21863269  0.71726750  0.54714881     0.37700
O379        O  0.24119528  0.72785587  0.53643937    -1.10600
O380        O  0.29381110  0.73973231  0.46228437    -0.67200
Ni381      Ni  0.25070483  0.73486875  0.46141872     1.26300
O382        O  0.21323509  0.76590294  0.53201797    -0.67500
O383        O  0.23522522  0.69198376  0.46821879    -0.79800
C384        C  0.24922813  0.75818457  0.35134249     0.83700
O385        O  0.25911905  0.74288752  0.38628545    -0.66900
Ni386      Ni  0.25918793  0.70471811  0.58288412     1.27400
Ni387      Ni  0.25625138  0.77056701  0.53092299     1.26100
H388        H  0.28764424  0.78841233  0.44451697     0.38200
O389        O  0.46781362  0.72514092  0.13659700    -0.81700
O390        O  0.48069407  0.74888059  0.88791069    -0.66400
O391        O  0.48979193  0.72612285  0.03436456    -1.13000
C392        C  0.05882645  0.83217388  0.99841804     1.05200
O393        O  0.03051815  0.78298026  0.85825210    -0.79600
O394        O  0.06964836  0.78738719  0.92989448    -0.67200
Ni395      Ni  0.45310512  0.70112241  0.08807780     1.34900
C396        C  0.07332437  0.77405821  0.97561051     0.83900
O397        O  0.46045147  0.69478189  0.96352208    -0.80200
O398        O  0.43436361  0.67336395  0.04716710    -0.90400
C399        C  0.00418117  0.76450452  0.85090463     0.83500
O400        O  0.42887494  0.72278775  0.06240790    -0.68600
O401        O  0.06031800  0.83382559  0.94925976    -0.87900
C402        C  0.42608827  0.73483130  0.01505476     0.84300
C403        C  0.43929524  0.67223929  0.00005188     1.05900
H404        H  0.99361858  0.78794489  0.96234653     0.37700
O405        O  0.00762789  0.77834919  0.96305314    -1.10600
O406        O  0.05331290  0.76418676  0.01786249    -0.67200
Ni407      Ni  0.01473805  0.76711227  0.03530670     1.26300
O408        O  0.44532632  0.74021824  0.97457314    -0.67500
O409        O  0.03958801  0.80851269  0.03547306    -0.79800
C410        C  0.49551689  0.73927913  0.14563458     0.83700
O411        O  0.01904889  0.75366960  0.10846010    -0.66900
Ni412      Ni  0.04282323  0.80626576  0.90777830     1.27400
Ni413      Ni  0.48402659  0.73688002  0.96174933     1.26100
H414        H  0.50274152  0.71530088  0.03750966     0.38200
O415        O  0.46824092  0.74049620  0.62725726    -0.81700
O416        O  0.48026538  0.73041085  0.39795693    -0.66400
O417        O  0.48599716  0.72128523  0.54565087    -1.13000
C418        C  0.07017137  0.82168582  0.47491307     1.05200
O419        O  0.03137124  0.74590522  0.38017814    -0.79600
O420        O  0.07215323  0.76132649  0.44966592    -0.67200
Ni421      Ni  0.45004662  0.70699913  0.59794902     1.34900
C422        C  0.07106297  0.75058816  0.49955026     0.83900
O423        O  0.44844132  0.68421165  0.48798464    -0.80200
O424        O  0.42883689  0.67184129  0.57445714    -0.90400
C425        C  0.00455609  0.73744384  0.36551662     0.83500
O426        O  0.42839027  0.72752090  0.55645065    -0.68600
O427        O  0.06989557  0.81608152  0.43036057    -0.87900
C428        C  0.42951979  0.73840181  0.50660563     0.84300
C429        C  0.42859128  0.66609775  0.53014130     1.05900
H430        H  0.00434424  0.77996449  0.44930267     0.37700
O431        O  0.01345686  0.76574565  0.46038806    -1.10600
O432        O  0.04990759  0.74750225  0.53461314    -0.67200
Ni433      Ni  0.01808071  0.76208489  0.53317821     1.26300
O434        O  0.44971160  0.73998719  0.47141158    -0.67500
O435        O  0.05072169  0.80320830  0.51742807    -0.79800
C436        C  0.49544183  0.75036601  0.64023711     0.83700
O437        O  0.01946019  0.75684137  0.60777406    -0.66900
Ni438      Ni  0.04933610  0.78026845  0.40785629     1.27400
Ni439      Ni  0.48132403  0.72502284  0.47269503     1.26100
H440        H  0.49509104  0.70705485  0.55680526     0.38800
O441        O  0.25241262  0.52901818  0.86459303    -0.81700
O442        O  0.26275877  0.52343675  0.10118523    -0.66400
O443        O  0.27237661  0.51373224  0.96313646    -1.13000
C444        C  0.17020103  0.93092359  0.02682805     1.05200
O445        O  0.24673881  0.97409085  0.13847954    -0.79600
O446        O  0.23811588  0.93469994  0.08189776    -0.67200
Ni447      Ni  0.28661627  0.54821536  0.89997928     1.34900
C448        C  0.24699110  0.93372707  0.03678963     0.83900
O449        O  0.31145436  0.55245953  0.01797101    -0.80200
O450        O  0.32292476  0.56990396  0.92859199    -0.90400
C451        C  0.25366535  0.00056551  0.14288407     0.83500
O452        O  0.26483922  0.56963416  0.92027572    -0.68600
O453        O  0.17818616  0.92954957  0.07305506    -0.87900
C454        C  0.25398586  0.56975814  0.96487686     0.84300
C455        C  0.33024418  0.57072821  0.97443606     1.05900
H456        H  0.21183085  0.99684190  0.04147919     0.37700
O457        O  0.22670876  0.98833125  0.04063759    -1.10600
O458        O  0.24432711  0.95069191  0.99354633    -0.67200
Ni459      Ni  0.23016256  0.98251254  0.97250009     1.26300
O460        O  0.25410724  0.55135270  0.00855454    -0.67500
O461        O  0.18754230  0.95155252  0.98408259    -0.79800
C462        C  0.24348801  0.50213473  0.86094682     0.83700
O463        O  0.23547603  0.97939194  0.90247174    -0.66900
Ni464      Ni  0.21342799  0.95326197  0.10273932     1.27400
Ni465      Ni  0.26890331  0.52025705  0.03088114     1.26100
H466        H  0.28687368  0.50471594  0.96332209     0.38200
O467        O  0.25734630  0.53423574  0.36925595    -0.81700
O468        O  0.25057826  0.51108406  0.61045132    -0.66400
O469        O  0.27063654  0.51075284  0.47014735    -1.13000
C470        C  0.17370071  0.92492086  0.50666025     1.05200
O471        O  0.23030949  0.95982821  0.64704926    -0.79600
O472        O  0.24327642  0.93574834  0.57287633    -0.67200
Ni473      Ni  0.28927680  0.54830237  0.41247642     1.34900
C474        C  0.25048537  0.93443145  0.52716032     0.83900
O475        O  0.30159159  0.54413397  0.53706476    -0.80200
O476        O  0.32295504  0.56538195  0.45009662    -0.90400
C477        C  0.24108219  0.98685560  0.65116124     0.83500
O478        O  0.26891679  0.57007625  0.43508336    -0.68600
O479        O  0.18203205  0.91847145  0.55222562    -0.87900
C480        C  0.25121225  0.56517290  0.47705464     0.84300
C481        C  0.32380459  0.56368931  0.49915190     1.05900
H482        H  0.20450373  0.98690373  0.54338454     0.37700
O483        O  0.22061888  0.98001886  0.54083071    -1.10600
O484        O  0.24345995  0.94876058  0.48578015    -0.67200
Ni485      Ni  0.22939567  0.98079367  0.46905793     1.26300
O486        O  0.24447745  0.54178840  0.51747670    -0.67500
O487        O  0.18800527  0.95084028  0.47093037    -0.79800
C488        C  0.24881969  0.50898286  0.35884156     0.83700
O489        O  0.23959754  0.98405328  0.39631035    -0.66900
Ni490      Ni  0.20804315  0.94162559  0.59532904     1.27400
Ni491      Ni  0.26112780  0.51206779  0.53964023     1.26100
H492        H  0.28515102  0.50166930  0.47183672     0.38200
C493        C  0.21367699  0.97831126  0.74068554    -0.02700
C494        C  0.24204243  0.99045240  0.70506694     0.07000
C495        C  0.27092806  0.50685899  0.72060819    -0.02800
C496        C  0.27124064  0.51006577  0.77214740    -0.02800
C497        C  0.24277124  0.49789048  0.80754667     0.07100
C498        C  0.21411011  0.98214768  0.79173635    -0.03000
Br499      Br  0.17516070  0.96722666  0.83882520    -0.01500
Br500      Br  0.17399926  0.95773175  0.71843747    -0.01600
Br501      Br  0.31080514  0.53011160  0.79521662    -0.01600
Br502      Br  0.30999478  0.52338919  0.67262004    -0.01500
C503        C  0.27613655  0.52841491  0.20996309    -0.02700
C504        C  0.25181981  0.00409258  0.19731494     0.07000
C505        C  0.22598836  0.98217509  0.23764936    -0.02800
C506        C  0.22389878  0.98511257  0.28920448    -0.02800
C507        C  0.24900881  0.50854583  0.30251935     0.07100
C508        C  0.27490973  0.53034278  0.26245973    -0.03000
Br509      Br  0.31018421  0.56181979  0.27972063    -0.01500
Br510      Br  0.31181943  0.55878872  0.15657800    -0.01600
Br511      Br  0.18597400  0.95774411  0.34047059    -0.01600
Br512      Br  0.19232487  0.94819123  0.22292162    -0.01500
C513        C  0.09053607  0.86968742  0.50278475    -0.02700
C514        C  0.09622255  0.85018996  0.47822086     0.07000
C515        C  0.12758838  0.85658369  0.46039319    -0.02800
C516        C  0.15283224  0.88146534  0.46890757    -0.02800
C517        C  0.14708333  0.90044801  0.49431326     0.07100
C518        C  0.11600327  0.89489745  0.51047746    -0.03000
Br519      Br  0.10859549  0.92179743  0.54371224    -0.01500
Br520      Br  0.04802554  0.86236793  0.52499785    -0.01600
Br521      Br  0.19548173  0.88869498  0.44793397    -0.01600
Br522      Br  0.13678696  0.83023680  0.42765575    -0.01500
C523        C  0.37124566  0.63053900  0.54805934    -0.02700
C524        C  0.40235990  0.63773454  0.52696203     0.07000
C525        C  0.40760505  0.61901733  0.49985387    -0.02800
C526        C  0.38196178  0.59359193  0.49329037    -0.02800
C527        C  0.35100028  0.58730255  0.51235363     0.07100
C528        C  0.34575037  0.60567171  0.54019977    -0.03000
Br529      Br  0.30346728  0.59890855  0.56355222    -0.01500
Br530      Br  0.36242959  0.65605011  0.58379993    -0.01600
Br531      Br  0.38924705  0.56685434  0.45940351    -0.01600
Br532      Br  0.44982121  0.62779853  0.47197628    -0.01500
C533        C  0.48588215  0.77414874  0.76300770    -0.02700
C534        C  0.00163843  0.76063254  0.79744965     0.07000
C535        C  0.01638941  0.74468102  0.77986958    -0.02800
C536        C  0.01469535  0.74153443  0.72830528    -0.02800
C537        C  0.49874604  0.75497075  0.69354453     0.07100
C538        C  0.48421498  0.77116141  0.71141400    -0.03000
Br539      Br  0.46270132  0.79025291  0.66511628    -0.01500
Br540      Br  0.46790701  0.79803486  0.78593131    -0.01600
Br541      Br  0.03225562  0.71685679  0.70721851    -0.01600
Br542      Br  0.03853778  0.72675319  0.82714897    -0.01500
C543        C  0.48975136  0.75575115  0.27698760    -0.02700
C544        C  0.00207893  0.73721497  0.30944560     0.07000
C545        C  0.01376319  0.72043331  0.28686131    -0.02800
C546        C  0.01204240  0.72140625  0.23295226    -0.02800
C547        C  0.49970218  0.73996816  0.20083022     0.07100
C548        C  0.48924806  0.75761335  0.22272489    -0.03000
Br549      Br  0.47568008  0.78558846  0.17735406    -0.01500
Br550      Br  0.47458207  0.77972655  0.30613818    -0.01600
Br551      Br  0.02559564  0.69663243  0.20316635    -0.01600
Br552      Br  0.03091856  0.69508957  0.33009167    -0.01500
C553        C  0.09032829  0.88877724  0.98727747    -0.02700
C554        C  0.08362654  0.85776116  0.01288871     0.07000
C555        C  0.10472734  0.85123842  0.04499786    -0.02800
C556        C  0.13329027  0.87513743  0.04746567    -0.02800
C557        C  0.13984266  0.90615252  0.02285955     0.07100
C558        C  0.11775487  0.91287391  0.99381167    -0.03000
Br559      Br  0.12466085  0.95496493  0.96379218    -0.01500
Br560      Br  0.06186172  0.89824655  0.94338724    -0.01600
Br561      Br  0.16520575  0.86478370  0.07839048    -0.01600
Br562      Br  0.09633545  0.80933823  0.08266979    -0.01500
C563        C  0.37704044  0.62330735  0.93454605    -0.02700
C564        C  0.36197461  0.59487935  0.97641034     0.07000
C565        C  0.37781039  0.58998867  0.02001916    -0.02800
C566        C  0.40405861  0.61483498  0.02732925    -0.02800
C567        C  0.41744502  0.64393930  0.98749680     0.07100
C568        C  0.40606409  0.64633073  0.93834506    -0.03000
Br569      Br  0.43036977  0.67992813  0.87468035    -0.01500
Br570      Br  0.35781384  0.63323944  0.87294540    -0.01600
Br571      Br  0.42242394  0.60813688  0.09113750    -0.01600
Br572      Br  0.36561345  0.54890427  0.06720341    -0.01500
C573        C  0.27890034  0.88913612  0.46204423    -0.02700
C574        C  0.26915876  0.86149996  0.50447647     0.07000
C575        C  0.26233763  0.86170477  0.55702985    -0.02800
C576        C  0.26041974  0.88748707  0.56580839    -0.02800
C577        C  0.26431130  0.91302589  0.52181600     0.07100
C578        C  0.27694584  0.91489531  0.47072049    -0.03000
Br579      Br  0.29295506  0.95297048  0.41243173    -0.01500
Br580      Br  0.29572290  0.89210974  0.39181415    -0.01600
Br581      Br  0.25244845  0.88671552  0.63889719    -0.01600
Br582      Br  0.25339793  0.82619136  0.61783610    -0.01500
C583        C  0.22512125  0.61558763  0.53448185    -0.02700
C584        C  0.23620567  0.64266136  0.49059333     0.07000
C585        C  0.24402895  0.64111657  0.43959975    -0.02800
C586        C  0.24583805  0.61455554  0.43420243    -0.02800
C587        C  0.24018929  0.58912707  0.48008392     0.07100
C588        C  0.22705694  0.58902210  0.52968158    -0.03000
Br589      Br  0.21158532  0.55340268  0.59286377    -0.01500
Br590      Br  0.20593186  0.61457567  0.60146271    -0.01600
Br591      Br  0.25538007  0.61380945  0.36259444    -0.01600
Br592      Br  0.25315214  0.67541497  0.37643056    -0.01500
C593        C  0.14988233  0.76838794  0.54162849    -0.02700
C594        C  0.16065274  0.75281513  0.51443903     0.07000
C595        C  0.13874563  0.72987258  0.49588208    -0.02800
C596        C  0.10773980  0.72657092  0.49543284    -0.02800
C597        C  0.09801116  0.74483202  0.51685042     0.07100
C598        C  0.11824837  0.76344569  0.54466100    -0.03000
Br599      Br  0.10389502  0.78482045  0.58239643    -0.01500
Br600      Br  0.17891089  0.79946404  0.56865700    -0.01600
Br601      Br  0.07872959  0.69768818  0.46444400    -0.01600
Br602      Br  0.15151023  0.70317331  0.47108237    -0.01500
C603        C  0.36781989  0.76778087  0.50782289    -0.02700
C604        C  0.34536529  0.74872976  0.48344966     0.07000
C605        C  0.35445989  0.73272249  0.45478735    -0.02800
C606        C  0.38364844  0.73166834  0.45809149    -0.02800
C607        C  0.40415693  0.74709784  0.48943693     0.07100
C608        C  0.39699426  0.76672172  0.51132008    -0.03000
Br609      Br  0.42699462  0.79175713  0.54669290    -0.01500
Br610      Br  0.35849527  0.79553506  0.53573002    -0.01600
Br611      Br  0.39342035  0.70589580  0.42477130    -0.01600
Br612      Br  0.32620749  0.70993210  0.41456290    -0.01500
C613        C  0.28590793  0.76350978  0.76788972    -0.02700
C614        C  0.25817082  0.75895875  0.79775144     0.07000
C615        C  0.22980012  0.74991259  0.77676357    -0.02800
C616        C  0.22939623  0.74647049  0.72542690    -0.02800
C617        C  0.25720104  0.75127694  0.69529565     0.07100
C618        C  0.28541860  0.75966481  0.71684093    -0.03000
Br619      Br  0.32390373  0.76738528  0.67557671    -0.01500
Br620      Br  0.32486195  0.77602532  0.79613685    -0.01600
Br621      Br  0.19039422  0.73394038  0.69730002    -0.01600
Br622      Br  0.19095236  0.74012719  0.81987103    -0.01500
C623        C  0.21846877  0.72319718  0.24196635    -0.02700
C624        C  0.24106294  0.74469228  0.19727351     0.07000
C625        C  0.26639545  0.77065228  0.20323892    -0.02800
C626        C  0.26968312  0.77450179  0.25406749    -0.02800
C627        C  0.24704606  0.75303061  0.29875896     0.07100
C628        C  0.22117770  0.72763555  0.29246448    -0.03000
Br629      Br  0.18892162  0.69944779  0.35269255    -0.01500
Br630      Br  0.18340679  0.68813406  0.23351664    -0.01600
Br631      Br  0.30557932  0.80876124  0.26289465    -0.01600
Br632      Br  0.29670492  0.80096733  0.14190252    -0.01500
C633        C  0.28221868  0.88963073  0.97902133    -0.02700
C634        C  0.26620311  0.85973940  0.01587964     0.07000
C635        C  0.24990559  0.85635930  0.06508144    -0.02800
C636        C  0.24826338  0.88195017  0.07540161    -0.02800
C637        C  0.25879926  0.91035715  0.03393989     0.07100
C638        C  0.27775765  0.91447239  0.98702901    -0.03000
Br639      Br  0.29938857  0.95450589  0.93417772    -0.01500
Br640      Br  0.31119265  0.89702888  0.91777530    -0.01600
Br641      Br  0.23193248  0.87703804  0.14742185    -0.01600
Br642      Br  0.22621902  0.81637121  0.11717405    -0.01500
C643        C  0.21640403  0.61335181  0.01965472    -0.02700
C644        C  0.23002084  0.64249503  0.98046350     0.07000
C645        C  0.24413261  0.64486582  0.93022232    -0.02800
C646        C  0.25113936  0.62097936  0.92390731    -0.02800
C647        C  0.24197284  0.59320606  0.96685963     0.07100
C648        C  0.22234808  0.58897007  0.01330959    -0.03000
Br649      Br  0.20250928  0.54986612  0.06927115    -0.01500
Br650      Br  0.18725793  0.60608423  0.08062561    -0.01600
Br651      Br  0.27500287  0.62851008  0.85623975    -0.01600
Br652      Br  0.25312110  0.68012271  0.86863032    -0.01500
C653        C  0.16148703  0.80129084  0.96005752    -0.02700
C654        C  0.16414734  0.77381400  0.98310442     0.07000
C655        C  0.13674382  0.74628068  0.00712863    -0.02800
C656        C  0.10675765  0.74604112  0.00598498    -0.02800
C657        C  0.10416632  0.77320261  0.97957894     0.07100
C658        C  0.13184551  0.80093358  0.95725919    -0.03000
Br659      Br  0.13004973  0.83945634  0.92395579    -0.01500
Br660      Br  0.19860806  0.84032163  0.93438578    -0.01600
Br661      Br  0.06939958  0.70828678  0.03833625    -0.01600
Br662      Br  0.14025022  0.70879351  0.03946621    -0.01500
C663        C  0.34906592  0.72928995  0.96951907    -0.02700
C664        C  0.33639408  0.73730249  0.00909589     0.07000
C665        C  0.35581027  0.74999477  0.04421410    -0.02800
C666        C  0.38613204  0.75124018  0.04391474    -0.02800
C667        C  0.39787394  0.74081515  0.00715442     0.07100
C668        C  0.38005705  0.73232641  0.96709493    -0.03000
Br669      Br  0.39692372  0.72399654  0.90879815    -0.01500
Br670      Br  0.32327707  0.71093846  0.92159508    -0.01600
Br671      Br  0.41207258  0.76863537  0.09251234    -0.01600
Br672      Br  0.34130653  0.76657701  0.09185102    -0.01500
O673        O  0.74916555  0.28295256  0.85883015    -0.81700
O674        O  0.73057429  0.25436754  0.10966837    -0.66400
O675        O  0.76463409  0.27715818  0.96326184    -1.13000
C676        C  0.73337028  0.17036551  0.99573138     1.05200
O677        O  0.74862729  0.21945342  0.13813186    -0.79600
O678        O  0.78673039  0.21707237  0.06306330    -0.67200
Ni679      Ni  0.75550033  0.30550805  0.90984706     1.34900
C680        C  0.80244571  0.23034735  0.01624508     0.83900
O681        O  0.76230662  0.30832116  0.03668167    -0.80200
O682        O  0.76092413  0.33237996  0.95310392    -0.90400
C683        C  0.73959412  0.23885366  0.14577667     0.83500
O684        O  0.71144531  0.28583045  0.93331499    -0.68600
O685        O  0.73713777  0.17014247  0.04354232    -0.87900
C686        C  0.69563820  0.27433521  0.97997898     0.84300
C687        C  0.76352503  0.33183013  0.00133483     1.05900
H688        H  0.70953236  0.21575755  0.03710008     0.37700
O689        O  0.73217581  0.22495543  0.03433610    -1.10600
O690        O  0.79023912  0.23704546  0.97521264    -0.67200
Ni691      Ni  0.74982524  0.23567284  0.96141571     1.26300
O692        O  0.70669889  0.26632331  0.02191654    -0.67500
O693        O  0.73441654  0.19387671  0.96070305    -0.79800
C694        C  0.75826987  0.26357978  0.85137233     0.83700
O695        O  0.76656958  0.24772102  0.88809802    -0.66900
Ni696      Ni  0.74248179  0.19694269  0.08699115     1.27400
Ni697      Ni  0.74689344  0.26650989  0.03608806     1.26100
H698        H  0.78723278  0.28620815  0.96098230     0.38200
O699        O  0.74083955  0.27750441  0.36013666    -0.81700
O700        O  0.74806075  0.26277627  0.60648224    -0.66400
O701        O  0.76529911  0.27727917  0.45665308    -1.13000
C702        C  0.74203940  0.17227555  0.50076076     1.05200
O703        O  0.76412031  0.22634219  0.63531135    -0.79600
O704        O  0.80073891  0.23142694  0.54866308    -0.67200
Ni705      Ni  0.74623005  0.29972270  0.41140338     1.34900
C706        C  0.81137094  0.23996069  0.49925935     0.83900
O707        O  0.77229499  0.31329446  0.52382140    -0.80200
O708        O  0.75035629  0.32669925  0.45422515    -0.90400
C709        C  0.75622791  0.24646281  0.64273565     0.83500
O710        O  0.70478992  0.27189854  0.44796332    -0.68600
O711        O  0.75482027  0.17746486  0.54104941    -0.87900
C712        C  0.69493538  0.26372371  0.49759877     0.84300
C713        C  0.76411834  0.33222365  0.49355767     1.05900
H714        H  0.71850999  0.21712387  0.54760622     0.37700
O715        O  0.74108375  0.22765451  0.53704557    -1.10600
O716        O  0.79379825  0.23939837  0.46329076    -0.67200
Ni717      Ni  0.75075593  0.23466709  0.46207450     1.26300
O718        O  0.71330533  0.26585438  0.53226420    -0.67500
O719        O  0.73517587  0.19176363  0.46888707    -0.79800
C720        C  0.74963470  0.25809167  0.35188295     0.83700
O721        O  0.75934330  0.24268778  0.38698499    -0.66900
Ni722      Ni  0.75889773  0.20440775  0.58366491     1.27400
Ni723      Ni  0.75625102  0.27038509  0.53153103     1.26100
H724        H  0.78780733  0.28817557  0.44529615     0.38200
O725        O  0.96747647  0.22502171  0.13825300    -0.81700
O726        O  0.98060123  0.24804618  0.88974720    -0.66400
O727        O  0.98961809  0.22583136  0.03626715    -1.13000
C728        C  0.55872564  0.33184156  0.99956640     1.05200
O729        O  0.53035193  0.28230692  0.85974964    -0.79600
O730        O  0.56930456  0.28645223  0.93169445    -0.67200
Ni731      Ni  0.95283829  0.20091861  0.08983726     1.34900
C732        C  0.57303203  0.27344449  0.97761383     0.83900
O733        O  0.96055171  0.19422364  0.96566345    -0.80200
O734        O  0.93412538  0.17308540  0.04902848    -0.90400
C735        C  0.50404324  0.26366102  0.85264023     0.83500
O736        O  0.92869304  0.22260593  0.06377147    -0.68600
O737        O  0.56040721  0.33322024  0.95054210    -0.87900
C738        C  0.92588240  0.23438760  0.01629006     0.84300
C739        C  0.93921929  0.17182031  0.00206935     1.05900
H740        H  0.49344990  0.28753804  0.96342110     0.37700
O741        O  0.50746125  0.27792530  0.96445051    -1.10600
O742        O  0.55311871  0.26395844  0.01984496    -0.67200
Ni743      Ni  0.51448131  0.26690824  0.03683916     1.26300
O744        O  0.94514635  0.23960835  0.97597246    -0.67500
O745        O  0.53925204  0.30838485  0.03668220    -0.79800
C746        C  0.99516282  0.23924523  0.14727412     0.83700
O747        O  0.51870097  0.25368001  0.11008877    -0.66900
Ni748      Ni  0.54276611  0.30562135  0.90921613     1.27400
Ni749      Ni  0.98394509  0.23635280  0.96357665     1.26100
H750        H  0.00259129  0.21502625  0.03969293     0.38200
O751        O  0.96817490  0.23941944  0.62954824    -0.81700
O752        O  0.98006179  0.23000771  0.39970511    -0.66400
O753        O  0.98580534  0.22054261  0.54740071    -1.13000
C754        C  0.56983137  0.32125340  0.47706205     1.05200
O755        O  0.53121506  0.24586111  0.38158255    -0.79600
O756        O  0.57212779  0.26149187  0.45077170    -0.67200
Ni757      Ni  0.94979936  0.20617518  0.59966676     1.34900
C758        C  0.57104449  0.25038545  0.50054066     0.83900
O759        O  0.94841271  0.18363290  0.48939505    -0.80200
O760        O  0.92835585  0.17125127  0.57562032    -0.90400
C761        C  0.50434868  0.23720325  0.36711302     0.83500
O762        O  0.92832074  0.22701492  0.55844120    -0.68600
O763        O  0.56927513  0.31592746  0.43223772    -0.87900
C764        C  0.92928572  0.23774079  0.50860335     0.84300
C765        C  0.92831001  0.16556529  0.53126589     1.05900
H766        H  0.50389728  0.27938081  0.45168077     0.37700
O767        O  0.51313872  0.26524382  0.46236806    -1.10600
O768        O  0.54976254  0.24680816  0.53591358    -0.67200
Ni769      Ni  0.51792138  0.26134555  0.53514528     1.26300
O770        O  0.94936891  0.23920744  0.47336811    -0.67500
O771        O  0.55061456  0.30250097  0.51969123    -0.79800
C772        C  0.99543759  0.24927437  0.64233640     0.83700
O773        O  0.51942120  0.25580080  0.60973440    -0.66900
Ni774      Ni  0.54894530  0.28016220  0.40949008     1.27400
Ni775      Ni  0.98114623  0.22446875  0.47441919     1.26100
H776        H  0.99488482  0.20629146  0.55844202     0.38800
O777        O  0.75294291  0.02927552  0.86422270    -0.81700
O778        O  0.76230707  0.02359974  0.10115036    -0.66400
O779        O  0.77237276  0.01384233  0.96335887    -1.13000
C780        C  0.67021453  0.43072865  0.02727498     1.05200
O781        O  0.74700162  0.47386716  0.13838187    -0.79600
O782        O  0.73787887  0.43436071  0.08203499    -0.67200
Ni783      Ni  0.78686303  0.04840210  0.90022333     1.34900
C784        C  0.74706529  0.43354207  0.03698851     0.83900
O785        O  0.81113838  0.05255600  0.01855328    -0.80200
O786        O  0.82299403  0.07007580  0.92927228    -0.90400
C787        C  0.75404653  0.50032960  0.14288160     0.83500
O788        O  0.76489572  0.06975906  0.92020643    -0.68600
O789        O  0.67810925  0.42961844  0.07348973    -0.87900
C790        C  0.75379604  0.06977906  0.96472436     0.84300
C791        C  0.83010579  0.07082852  0.97524797     1.05900
H792        H  0.71207967  0.49678753  0.04142839     0.37700
O793        O  0.72690460  0.48821026  0.04064789    -1.10600
O794        O  0.74464680  0.45061907  0.99361843    -0.67200
Ni795      Ni  0.73023614  0.48226873  0.97253932     1.26300
O796        O  0.75381866  0.05137139  0.00846106    -0.67500
O797        O  0.68766182  0.45112386  0.98438928    -0.79800
C798        C  0.74377810  0.00229801  0.86088886     0.83700
O799        O  0.73544460  0.47915872  0.90240926    -0.66900
Ni800      Ni  0.71351521  0.45319840  0.10288675     1.27400
Ni801      Ni  0.76866841  0.02036366  0.03105459     1.26100
H802        H  0.78682100  0.00475754  0.96376081     0.38200
O803        O  0.75687886  0.03427095  0.36944363    -0.81700
O804        O  0.75070035  0.01062885  0.61089164    -0.66400
O805        O  0.77036350  0.01066641  0.47011661    -1.13000
C806        C  0.67392072  0.42483820  0.50723175     1.05200
O807        O  0.73107736  0.46032211  0.64672153    -0.79600
O808        O  0.74347907  0.43564435  0.57315911    -0.67200
Ni809      Ni  0.78884486  0.04830465  0.41259618     1.34900
C810        C  0.75081455  0.43442072  0.52742680     0.83900
O811        O  0.80154590  0.04371912  0.53727996    -0.80200
O812        O  0.82253718  0.06543367  0.45014292    -0.90400
C813        C  0.74133163  0.48733194  0.65078365     0.83500
O814        O  0.76829153  0.06979768  0.43554096    -0.68600
O815        O  0.68217950  0.41857304  0.55291737    -0.87900
C816        C  0.75081381  0.06486463  0.47780125     0.84300
C817        C  0.82356823  0.06349772  0.49924823     1.05900
H818        H  0.70472335  0.48692599  0.54315570     0.37700
O819        O  0.72090543  0.48011224  0.54072865    -1.10600
O820        O  0.74389082  0.44881204  0.48600036    -0.67200
Ni821      Ni  0.72972556  0.48074997  0.46909245     1.26300
O822        O  0.74445930  0.04161599  0.51829386    -0.67500
O823        O  0.68836980  0.45061045  0.47111802    -0.79800
C824        C  0.74840266  0.00908813  0.35884211     0.83700
O825        O  0.73996378  0.48394909  0.39639533    -0.66900
Ni826      Ni  0.70846153  0.44186745  0.59554974     1.27400
Ni827      Ni  0.76100861  0.01177904  0.53984806     1.26100
H828        H  0.78487049  0.00158799  0.47148851     0.38200
C829        C  0.71371585  0.47860343  0.74018100    -0.02700
C830        C  0.74213712  0.49095777  0.70462994     0.07000
C831        C  0.77095439  0.00619124  0.72099567    -0.02800
C832        C  0.77138031  0.00958201  0.77241277    -0.02800
C833        C  0.74295300  0.99781937  0.80767800     0.07100
C834        C  0.71402616  0.48215576  0.79143403    -0.03000
Br835      Br  0.67499844  0.46675752  0.83856621    -0.01500
Br836      Br  0.67414266  0.45810591  0.71754763    -0.01600
Br837      Br  0.81101691  0.02927872  0.79556837    -0.01600
Br838      Br  0.80997742  0.02234699  0.67310339    -0.01500
C839        C  0.77534725  0.02908264  0.20962552    -0.02700
C840        C  0.75227672  0.50376873  0.19740195     0.07000
C841        C  0.72627825  0.48206847  0.23763778    -0.02800
C842        C  0.72420931  0.48508779  0.28914957    -0.02800
C843        C  0.74852960  0.00876055  0.30245795     0.07100
C844        C  0.77411793  0.03096762  0.26215045    -0.03000
Br845      Br  0.80893610  0.06310847  0.27893950    -0.01500
Br846      Br  0.81042533  0.06023355  0.15580832    -0.01600
Br847      Br  0.68614428  0.45808124  0.34028960    -0.01600
Br848      Br  0.69250864  0.44814262  0.22298238    -0.01500
C849        C  0.59049742  0.36898540  0.50598118    -0.02700
C850        C  0.59596746  0.34976869  0.48037524     0.07000
C851        C  0.62726781  0.35656442  0.46108574    -0.02800
C852        C  0.65264799  0.38161703  0.46891809    -0.02800
C853        C  0.64711303  0.40030070  0.49533958     0.07100
C854        C  0.61609580  0.39429683  0.51316891    -0.03000
Br855      Br  0.60897946  0.42084846  0.54771321    -0.01500
Br856      Br  0.54810590  0.36121796  0.53022174    -0.01600
Br857      Br  0.69525316  0.38948864  0.44566658    -0.01600
Br858      Br  0.63627398  0.33052648  0.42724944    -0.01500
C859        C  0.87088486  0.13039591  0.54802959    -0.02700
C860        C  0.90204092  0.13735748  0.52761931     0.07000
C861        C  0.90731373  0.11859884  0.50062376    -0.02800
C862        C  0.88167977  0.09324758  0.49383394    -0.02800
C863        C  0.85071978  0.08712489  0.51242925     0.07100
C864        C  0.84541937  0.10565386  0.53979734    -0.03000
Br865      Br  0.80313112  0.09926425  0.56189015    -0.01500
Br866      Br  0.86200283  0.15605528  0.58329112    -0.01600
Br867      Br  0.88893217  0.06640192  0.46020245    -0.01600
Br868      Br  0.94953393  0.12724781  0.47307936    -0.01500
C869        C  0.98631682  0.27364751  0.76437100    -0.02700
C870        C  0.50144806  0.25961110  0.79934091     0.07000
C871        C  0.51566787  0.24307521  0.78236343    -0.02800
C872        C  0.51410060  0.23993861  0.73078596    -0.02800
C873        C  0.99884907  0.25397073  0.69549480     0.07100
C874        C  0.98498825  0.27084893  0.71265347    -0.03000
Br875      Br  0.96513750  0.29133127  0.66495212    -0.01500
Br876      Br  0.96851722  0.29777026  0.78686937    -0.01600
Br877      Br  0.53100400  0.21466002  0.71022705    -0.01600
Br878      Br  0.53685258  0.22431728  0.83049327    -0.01500
C879        C  0.98937701  0.25549755  0.27882672    -0.02700
C880        C  0.50178223  0.23698508  0.31108453     0.07000
C881        C  0.51341774  0.22021748  0.28838346    -0.02800
C882        C  0.51167151  0.22126755  0.23445654    -0.02800
C883        C  0.99934250  0.23986864  0.20248977     0.07100
C884        C  0.98886906  0.25745082  0.22453614    -0.03000
Br885      Br  0.97528535  0.28547252  0.17935335    -0.01500
Br886      Br  0.97401315  0.27923707  0.30831292    -0.01600
Br887      Br  0.52520634  0.19655303  0.20445836    -0.01600
Br888      Br  0.53047083  0.19474176  0.33151711    -0.01500
C889        C  0.59056384  0.38851369  0.98722009    -0.02700
C890        C  0.58352143  0.35752072  0.01383404     0.07000
C891        C  0.60430503  0.35103881  0.04682550    -0.02800
C892        C  0.63286647  0.37492856  0.04938396    -0.02800
C893        C  0.63979379  0.40593721  0.02357138     0.07100
C894        C  0.61799659  0.41263317  0.99363081    -0.03000
Br895      Br  0.62521451  0.45473886  0.96242966    -0.01500
Br896      Br  0.56260693  0.39794300  0.94194907    -0.01600
Br897      Br  0.66421315  0.36447361  0.08252363    -0.01600
Br898      Br  0.59554957  0.30915881  0.08543987    -0.01500
C899        C  0.87728066  0.12318182  0.93579929    -0.02700
C900        C  0.86181176  0.09483032  0.97773353     0.07000
C901        C  0.87723860  0.08984468  0.02192006    -0.02800
C902        C  0.90355659  0.11454942  0.02942010    -0.02800
C903        C  0.91734730  0.14357655  0.98943618     0.07100
C904        C  0.90633763  0.14601031  0.93995679    -0.03000
Br905      Br  0.93122316  0.17934357  0.87631998    -0.01500
Br906      Br  0.85856745  0.13331572  0.87359635    -0.01600
Br907      Br  0.92154677  0.10774668  0.09365151    -0.01600
Br908      Br  0.86435371  0.04881327  0.06989210    -0.01500
C909        C  0.77879960  0.38892711  0.46225068    -0.02700
C910        C  0.76928873  0.36138944  0.50485399     0.07000
C911        C  0.76282307  0.36178331  0.55741375    -0.02800
C912        C  0.76105105  0.38764946  0.56610814    -0.02800
C913        C  0.76469072  0.41305243  0.52206108     0.07100
C914        C  0.77705784  0.41477508  0.47090156    -0.03000
Br915      Br  0.79314894  0.45282921  0.41254537    -0.01500
Br916      Br  0.79494395  0.39166843  0.39172600    -0.01600
Br917      Br  0.75381509  0.38729034  0.63912608    -0.01600
Br918      Br  0.75413302  0.32641991  0.61836878    -0.01500
C919        C  0.72510529  0.11537363  0.53552162    -0.02700
C920        C  0.73603808  0.14237196  0.49147296     0.07000
C921        C  0.74355048  0.14066680  0.44045892    -0.02800
C922        C  0.74496592  0.11394367  0.43508399    -0.02800
C923        C  0.73967748  0.08869661  0.48103246     0.07100
C924        C  0.72696446  0.08876651  0.53078708    -0.03000
Br925      Br  0.71204928  0.05335539  0.59426672    -0.01500
Br926      Br  0.70630535  0.11451743  0.60269971    -0.01600
Br927      Br  0.75333603  0.11262082  0.36346956    -0.01600
Br928      Br  0.75300980  0.17500993  0.37723916    -0.01500
C929        C  0.65005583  0.26830239  0.54190464    -0.02700
C930        C  0.66081206  0.25285164  0.51438394     0.07000
C931        C  0.63890810  0.23003653  0.49557635    -0.02800
C932        C  0.60787523  0.22666988  0.49542901    -0.02800
C933        C  0.59811561  0.24473752  0.51735748     0.07100
C934        C  0.61840328  0.26330627  0.54517106    -0.03000
Br935      Br  0.60404865  0.28450282  0.58332460    -0.01500
Br936      Br  0.67911365  0.29927319  0.56914165    -0.01600
Br937      Br  0.57887654  0.19798403  0.46409256    -0.01600
Br938      Br  0.65169262  0.20357567  0.47003300    -0.01500
C939        C  0.86751178  0.26704286  0.51009714    -0.02700
C940        C  0.84527167  0.24838202  0.48492014     0.07000
C941        C  0.85456560  0.23272174  0.45571278    -0.02800
C942        C  0.88370083  0.23155106  0.45927833    -0.02800
C943        C  0.90392892  0.24649181  0.49149653     0.07100
C944        C  0.89657041  0.26580036  0.51399525    -0.03000
Br945      Br  0.92610438  0.29015685  0.55082875    -0.01500
Br946      Br  0.85807901  0.29459081  0.53846339    -0.01600
Br947      Br  0.89372953  0.20627899  0.42497978    -0.01600
Br948      Br  0.82668517  0.21064370  0.41418678    -0.01500
C949        C  0.78542470  0.26275801  0.76895756    -0.02700
C950        C  0.75779472  0.25863281  0.79851398     0.07000
C951        C  0.72949138  0.24991875  0.77729995    -0.02800
C952        C  0.72910160  0.24657382  0.72589400    -0.02800
C953        C  0.75681280  0.25098171  0.69603935     0.07100
C954        C  0.78492210  0.25890861  0.71792408    -0.03000
Br955      Br  0.82328545  0.26598439  0.67718761    -0.01500
Br956      Br  0.82425749  0.27460132  0.79764710    -0.01600
Br957      Br  0.69022936  0.23473144  0.69732259    -0.01600
Br958      Br  0.69066844  0.24028902  0.82030935    -0.01500
C959        C  0.71879045  0.22294498  0.24277691    -0.02700
C960        C  0.74133211  0.24440932  0.19801708     0.07000
C961        C  0.76671381  0.27037787  0.20385302    -0.02800
C962        C  0.77003747  0.27432603  0.25460552    -0.02800
C963        C  0.74745215  0.25287279  0.29936936     0.07100
C964        C  0.72159131  0.22742209  0.29322181    -0.03000
Br965      Br  0.68944168  0.19921035  0.35356629    -0.01500
Br966      Br  0.68365502  0.18788186  0.23448922    -0.01600
Br967      Br  0.80587699  0.30871935  0.26320853    -0.01600
Br968      Br  0.79704769  0.30056031  0.14245660    -0.01500
C969        C  0.78227047  0.38928904  0.97975915    -0.02700
C970        C  0.76613417  0.35943178  0.01667107     0.07000
C971        C  0.74990616  0.35615810  0.06583562    -0.02800
C972        C  0.74838893  0.38182728  0.07601224    -0.02800
C973        C  0.75893007  0.41017928  0.03440871     0.07100
C974        C  0.77795614  0.41422284  0.98765384    -0.03000
Br975      Br  0.79997963  0.45429554  0.93506676    -0.01500
Br976      Br  0.81118616  0.39647789  0.91861236    -0.01600
Br977      Br  0.73251480  0.37718691  0.14812744    -0.01600
Br978      Br  0.72618783  0.31622607  0.11804610    -0.01500
C979        C  0.71611994  0.11318023  0.01970084    -0.02700
C980        C  0.72983272  0.14237337  0.98069262     0.07000
C981        C  0.74391927  0.14483087  0.93036138    -0.02800
C982        C  0.75085885  0.12094992  0.92382632    -0.02800
C983        C  0.74164058  0.09312448  0.96664433     0.07100
C984        C  0.72191277  0.08877969  0.01305417    -0.03000
Br985      Br  0.70164320  0.04946902  0.06841188    -0.01500
Br986      Br  0.68710421  0.10591875  0.08085095    -0.01600
Br987      Br  0.77460372  0.12848867  0.85603676    -0.01600
Br988      Br  0.75299923  0.18021068  0.86898394    -0.01500
C989        C  0.66117116  0.30069044  0.96156794    -0.02700
C990        C  0.66387783  0.27323760  0.98458612     0.07000
C991        C  0.63650762  0.24571936  0.00896382    -0.02800
C992        C  0.60649592  0.24544694  0.00798263    -0.02800
C993        C  0.60386617  0.27260348  0.98172736     0.07100
C994        C  0.63151118  0.30033834  0.95933812    -0.03000
Br995      Br  0.62962491  0.33887272  0.92670995    -0.01500
Br996      Br  0.69826483  0.33969295  0.93501083    -0.01600
Br997      Br  0.56915131  0.20768125  0.04030949    -0.01600
Br998      Br  0.64009265  0.20831462  0.04164957    -0.01500
C999        C  0.84886002  0.22868382  0.97029385    -0.02700
C1000       C  0.83629388  0.23709852  0.00935025     0.07000
C1001       C  0.85577678  0.25005470  0.04415499    -0.02800
C1002       C  0.88601302  0.25112153  0.04424818    -0.02800
C1003       C  0.89765050  0.24030578  0.00806614     0.07100
C1004       C  0.87977465  0.23149268  0.96824335    -0.03000
Br1005     Br  0.89641513  0.22228840  0.91093400    -0.01500
Br1006     Br  0.82302937  0.21019163  0.92255866    -0.01600
Br1007     Br  0.91193671  0.26871338  0.09270855    -0.01600
Br1008     Br  0.84150098  0.26731734  0.09071242    -0.01500
O1009       O  0.74941960  0.78318379  0.85810516    -0.81700
O1010       O  0.73039949  0.75457723  0.10880194    -0.66400
O1011       O  0.76479570  0.77743056  0.96254851    -1.13000
C1012       C  0.73352677  0.67054312  0.99528917     1.05200
O1013       O  0.74866020  0.71984596  0.13738275    -0.79600
O1014       O  0.78671964  0.71711906  0.06264107    -0.67200
Ni1015     Ni  0.75590939  0.80588143  0.90892996     1.34900
C1016       C  0.80254704  0.73054247  0.01591201     0.83900
O1017       O  0.76223417  0.80856608  0.03587065    -0.80200
O1018       O  0.76145295  0.83284069  0.95206894    -0.90400
C1019       C  0.73944531  0.73913548  0.14499664     0.83500
O1020       O  0.71185897  0.78654686  0.93216796    -0.68600
O1021       O  0.73701688  0.67029714  0.04319197    -0.87900
C1022       C  0.69589444  0.77486983  0.97871955     0.84300
C1023       C  0.76372649  0.83217386  0.00043335     1.05900
H1024       H  0.70964462  0.71601994  0.03611270     0.37700
O1025       O  0.73227872  0.72521934  0.03351676    -1.10600
O1026       O  0.79046783  0.73741292  0.97481194    -0.67200
Ni1027     Ni  0.75009205  0.73594978  0.96068169     1.26300
O1028       O  0.70675435  0.76658142  0.02074854    -0.67500
O1029       O  0.73485345  0.69412547  0.96003388    -0.79800
C1030       C  0.75861592  0.76387149  0.85063125     0.83700
O1031       O  0.76697288  0.74805954  0.88736491    -0.66900
Ni1032     Ni  0.74245173  0.69720484  0.08642709     1.27400
Ni1033     Ni  0.74689856  0.76676346  0.03527122     1.26100
H1034       H  0.78738124  0.78647056  0.96047519     0.38200
O1035       O  0.74030443  0.77746048  0.35978749    -0.81700
O1036       O  0.74821130  0.76292714  0.60588969    -0.66400
O1037       O  0.76513999  0.77743715  0.45600454    -1.13000
C1038       C  0.74210565  0.67248060  0.50004921     1.05200
O1039       O  0.76461128  0.72672844  0.63443165    -0.79600
O1040       O  0.80096388  0.73170411  0.54756878    -0.67200
Ni1041     Ni  0.74593832  0.79980324  0.41092074     1.34900
C1042       C  0.81147080  0.74026831  0.49810790     0.83900
O1043       O  0.77221544  0.81343595  0.52323382    -0.80200
O1044       O  0.75030964  0.82690715  0.45360680    -0.90400
C1045       C  0.75658207  0.74673837  0.64199625     0.83500
O1046       O  0.70454609  0.77201568  0.44779317    -0.68600
O1047       O  0.75488143  0.67764754  0.54036369    -0.87900
C1048       C  0.69478194  0.76376917  0.49747592     0.84300
C1049       C  0.76405313  0.83238125  0.49298963     1.05900
H1050       H  0.71861630  0.71724580  0.54715260     0.37700
O1051       O  0.74117895  0.72783026  0.53644321    -1.10600
O1052       O  0.79379345  0.73969535  0.46229559    -0.67200
Ni1053     Ni  0.75068860  0.73483987  0.46142355     1.26300
O1054       O  0.71323239  0.76588987  0.53201776    -0.67500
O1055       O  0.73520116  0.69195325  0.46822979    -0.79800
C1056       C  0.74920383  0.75814975  0.35135195     0.83700
O1057       O  0.75910134  0.74285659  0.38628966    -0.66900
Ni1058     Ni  0.75916833  0.70468908  0.58288788     1.27400
Ni1059     Ni  0.75624509  0.77054358  0.53092237     1.26100
H1060       H  0.78763632  0.78837941  0.44451988     0.38200
O1061       O  0.96781187  0.72510223  0.13663540    -0.81700
O1062       O  0.98067890  0.74884885  0.88793733    -0.66400
O1063       O  0.98978695  0.72610085  0.03438735    -1.13000
C1064       C  0.55884914  0.83218796  0.99841591     1.05200
O1065       O  0.53053439  0.78301151  0.85823182    -0.79600
O1066       O  0.56965997  0.78740455  0.92987806    -0.67200
Ni1067     Ni  0.95309953  0.70109577  0.08810060     1.34900
C1068       C  0.57333271  0.77406900  0.97559157     0.83900
O1069       O  0.96045171  0.69475393  0.96354746    -0.80200
O1070       O  0.93435118  0.67334402  0.04718128    -0.90400
C1071       C  0.50419795  0.76453727  0.85088044     0.83500
O1072       O  0.92887486  0.72276969  0.06244285    -0.68600
O1073       O  0.56033849  0.83384399  0.94925601    -0.87900
C1074       C  0.92607975  0.73480226  0.01508901     0.84300
C1075       C  0.93928841  0.67221546  0.00007120     1.05900
H1076       H  0.49363783  0.78797294  0.96233269     0.37700
O1077       O  0.50764415  0.77837414  0.96303676    -1.10600
O1078       O  0.55332106  0.76419591  0.01784455    -0.67200
Ni1079     Ni  0.51475123  0.76713004  0.03529177     1.26300
O1080       O  0.94531218  0.74018124  0.97460513    -0.67500
O1081       O  0.53961005  0.80852617  0.03546832    -0.79800
C1082       C  0.99551526  0.73925730  0.14565626     0.83700
O1083       O  0.51905555  0.75367914  0.10844735    -0.66900
Ni1084     Ni  0.54284110  0.80629054  0.90776605     1.27400
Ni1085     Ni  0.98401761  0.73685303  0.96177299     1.26100
H1086       H  0.00274065  0.71528310  0.03753285     0.38200
O1087       O  0.96823278  0.74046576  0.62727899    -0.81700
O1088       O  0.98026167  0.73040528  0.39796565    -0.66400
O1089       O  0.98599795  0.72126874  0.54566107    -1.13000
C1090       C  0.57018778  0.82169089  0.47489005     1.05200
O1091       O  0.53137332  0.74590347  0.38017084    -0.79600
O1092       O  0.57215514  0.76132391  0.44966135    -0.67200
Ni1093     Ni  0.95004789  0.70696850  0.59796788     1.34900
C1094       C  0.57106193  0.75058561  0.49954677     0.83900
O1095       O  0.94844329  0.68419601  0.48798894    -0.80200
O1096       O  0.92884923  0.67180989  0.57447270    -0.90400
C1097       C  0.50455840  0.73744550  0.36550825     0.83500
O1098       O  0.92837584  0.72747714  0.55648184    -0.68600
O1099       O  0.56990964  0.81608458  0.43033900    -0.87900
C1100       C  0.92950485  0.73836624  0.50663893     0.84300
C1101       C  0.92859933  0.66607413  0.53014929     1.05900
H1102       H  0.50435650  0.77997695  0.44928022     0.37700
O1103       O  0.51346524  0.76575519  0.46037080    -1.10600
O1104       O  0.54990630  0.74750300  0.53460591    -0.67200
Ni1105     Ni  0.51808811  0.76209770  0.53316062     1.26300
O1106       O  0.94970279  0.73996652  0.47143779    -0.67500
O1107       O  0.55073720  0.80321666  0.51740541    -0.79800
C1108       C  0.99543359  0.75033897  0.64025916     0.83700
O1109       O  0.51946629  0.75685948  0.60775525    -0.66900
Ni1110     Ni  0.54934393  0.78026933  0.40784229     1.27400
Ni1111     Ni  0.98132154  0.72501078  0.47270537     1.26100
H1112       H  0.99509802  0.70704294  0.55680591     0.38800
O1113       O  0.75240331  0.52900026  0.86460124    -0.81700
O1114       O  0.76275726  0.52341991  0.10118878    -0.66400
O1115       O  0.77237163  0.51371635  0.96313950    -1.13000
C1116       C  0.67022816  0.93092820  0.02682334     1.05200
O1117       O  0.74677222  0.97409597  0.13845964    -0.79600
O1118       O  0.73813132  0.93469165  0.08189014    -0.67200
Ni1119     Ni  0.78661005  0.54819850  0.89998164     1.34900
C1120       C  0.74701539  0.93372538  0.03678106     0.83900
O1121       O  0.81144877  0.55244513  0.01796945    -0.80200
O1122       O  0.82292089  0.56988680  0.92859033    -0.90400
C1123       C  0.75369482  0.00056984  0.14286598     0.83500
O1124       O  0.76483598  0.56961890  0.92028089    -0.68600
O1125       O  0.67820867  0.92955786  0.07305270    -0.87900
C1126       C  0.75397923  0.56974037  0.96488156     0.84300
C1127       C  0.83023957  0.57071165  0.97443472     1.05900
H1128       H  0.71185735  0.99684274  0.04146354     0.37700
O1129       O  0.72673655  0.98833336  0.04062465    -1.10600
O1130       O  0.74436114  0.95069782  0.99353838    -0.67200
Ni1131     Ni  0.73019221  0.98251390  0.97249003     1.26300
O1132       O  0.75409928  0.55133372  0.00855891    -0.67500
O1133       O  0.68757391  0.95155066  0.98407539    -0.79800
C1134       C  0.74348001  0.50211682  0.86095518     0.83700
O1135       O  0.73550721  0.97939074  0.90246594    -0.66900
Ni1136     Ni  0.71345539  0.95326640  0.10272990     1.27400
Ni1137     Ni  0.76889951  0.52024102  0.03088375     1.26100
H1138       H  0.78686927  0.50470072  0.96332428     0.38200
O1139       O  0.75734023  0.53421604  0.36925296    -0.81700
O1140       O  0.75059223  0.51106293  0.61046260    -0.66400
O1141       O  0.77063473  0.51073687  0.47014497    -1.13000
C1142       C  0.67372663  0.92492087  0.50663697     1.05200
O1143       O  0.73032967  0.95980485  0.64704926    -0.79600
O1144       O  0.74329714  0.93573373  0.57286104    -0.67200
Ni1145     Ni  0.78926851  0.54828807  0.41247405     1.34900
C1146       C  0.75050935  0.93442032  0.52714365     0.83900
O1147       O  0.80160265  0.54410827  0.53706803    -0.80200
O1148       O  0.82294580  0.56537754  0.45009107    -0.90400
C1149       C  0.74112235  0.98683202  0.65116491     0.83500
O1150       O  0.76889444  0.57004933  0.43508144    -0.68600
O1151       O  0.68205549  0.91846790  0.55220286    -0.87900
C1152       C  0.75120480  0.56515087  0.47706696     0.84300
C1153       C  0.82380653  0.56367358  0.49914865     1.05900
H1154       H  0.70454598  0.98690427  0.54337535     0.37700
O1155       O  0.72065642  0.98001373  0.54082001    -1.10600
O1156       O  0.74349170  0.94875653  0.48576082    -0.67200
Ni1157     Ni  0.72942905  0.98079156  0.46904145     1.26300
O1158       O  0.74449142  0.54177704  0.51749974    -0.67500
O1159       O  0.68803640  0.95084064  0.47091014    -0.79800
C1160       C  0.74881342  0.50896206  0.35884354     0.83700
O1161       O  0.73962880  0.98405264  0.39629081    -0.66900
Ni1162     Ni  0.70806732  0.94161500  0.59531352     1.27400
Ni1163     Ni  0.76113409  0.51204879  0.53964537     1.26100
H1164       H  0.78514897  0.50165344  0.47182408     0.38200
C1165       C  0.71371240  0.97830572  0.74067590    -0.02700
C1166       C  0.74208072  0.99042596  0.70507450     0.07000
C1167       C  0.77092862  0.50683940  0.72062286    -0.02800
C1168       C  0.77123740  0.51004890  0.77216021    -0.02800
C1169       C  0.74276652  0.49787146  0.80755606     0.07100
C1170       C  0.71414290  0.98214903  0.79172183    -0.03000
Br1171     Br  0.67519194  0.96724866  0.83879324    -0.01500
Br1172     Br  0.67403512  0.95774290  0.71841312    -0.01600
Br1173     Br  0.81079906  0.53009958  0.79523409    -0.01600
Br1174     Br  0.80999822  0.52337136  0.67264195    -0.01500
C1175       C  0.77613681  0.52839442  0.20996811    -0.02700
C1176       C  0.75184810  0.00409719  0.19729535     0.07000
C1177       C  0.72601529  0.98218098  0.23762729    -0.02800
C1178       C  0.72392595  0.98511772  0.28918286    -0.02800
C1179       C  0.74900605  0.50852288  0.30252248     0.07100
C1180       C  0.77490748  0.53032136  0.26246494    -0.03000
Br1181     Br  0.81017894  0.56180048  0.27972800    -0.01500
Br1182     Br  0.81181963  0.55877076  0.15658546    -0.01600
Br1183     Br  0.68599629  0.95775904  0.34044200    -0.01600
Br1184     Br  0.69234655  0.94820525  0.22288969    -0.01500
C1185       C  0.59055774  0.86969344  0.50275756    -0.02700
C1186       C  0.59624156  0.85019355  0.47819692     0.07000
C1187       C  0.62760637  0.85658190  0.46037640    -0.02800
C1188       C  0.65285216  0.88146430  0.46888561    -0.02800
C1189       C  0.64710650  0.90045074  0.49428612     0.07100
C1190       C  0.61602678  0.89490175  0.51045186    -0.03000
Br1191     Br  0.60862095  0.92179799  0.54369864    -0.01500
Br1192     Br  0.54804784  0.86237712  0.52496905    -0.01600
Br1193     Br  0.69550009  0.88868800  0.44791706    -0.01600
Br1194     Br  0.63679971  0.83022371  0.42766282    -0.01500
C1195       C  0.87125368  0.63051514  0.54807019    -0.02700
C1196       C  0.90236732  0.63771173  0.52696676     0.07000
C1197       C  0.90761015  0.61899699  0.49985003    -0.02800
C1198       C  0.88196515  0.59357407  0.49328199    -0.02800
C1199       C  0.85100449  0.58728535  0.51234887     0.07100
C1200       C  0.84575689  0.60565173  0.54020344    -0.03000
Br1201     Br  0.80347421  0.59888887  0.56355827    -0.01500
Br1202     Br  0.86244058  0.65601811  0.58383484    -0.01600
Br1203     Br  0.88924585  0.56683815  0.45938563    -0.01600
Br1204     Br  0.94982546  0.62777760  0.47197077    -0.01500
C1205       C  0.98588436  0.77413249  0.76301795    -0.02700
C1206       C  0.50165760  0.76066867  0.79742265     0.07000
C1207       C  0.51642858  0.74473776  0.77982532    -0.02800
C1208       C  0.51472930  0.74158729  0.72826418    -0.02800
C1209       C  0.99873509  0.75493955  0.69356877     0.07100
C1210       C  0.98422246  0.77114845  0.71142198    -0.03000
Br1211     Br  0.96274537  0.79027159  0.66509413    -0.01500
Br1212     Br  0.96792915  0.79803792  0.78592357    -0.01600
Br1213     Br  0.53231047  0.71692757  0.70716562    -0.01600
Br1214     Br  0.53861120  0.72684189  0.82707740    -0.01500
C1215       C  0.98976877  0.75575841  0.27698212    -0.02700
C1216       C  0.50207955  0.73721980  0.30943489     0.07000
C1217       C  0.51377904  0.72045468  0.28683134    -0.02800
C1218       C  0.51205780  0.72143335  0.23291970    -0.02800
C1219       C  0.99970493  0.73995339  0.20084623     0.07100
C1220       C  0.98926784  0.75761583  0.22272106    -0.03000
Br1221     Br  0.97572035  0.78560158  0.17732665    -0.01500
Br1222     Br  0.97461846  0.77975307  0.30611065    -0.01600
Br1223     Br  0.52563480  0.69668282  0.20310767    -0.01600
Br1224     Br  0.53095585  0.69512437  0.33003774    -0.01500
C1225       C  0.59035294  0.88878826  0.98728244    -0.02700
C1226       C  0.58365106  0.85777186  0.01288915     0.07000
C1227       C  0.60475358  0.85124660  0.04499101    -0.02800
C1228       C  0.63331798  0.87514433  0.04745654    -0.02800
C1229       C  0.63986971  0.90615943  0.02285542     0.07100
C1230       C  0.61778163  0.91288329  0.99381321    -0.03000
Br1231     Br  0.62469187  0.95497553  0.96379299    -0.01500
Br1232     Br  0.56188410  0.89826002  0.94340116    -0.01600
Br1233     Br  0.66523670  0.86479087  0.07837017    -0.01600
Br1234     Br  0.59636165  0.80934552  0.08265523    -0.01500
C1235       C  0.87704111  0.62328746  0.93454845    -0.02700
C1236       C  0.86197029  0.59486015  0.97641249     0.07000
C1237       C  0.87779984  0.58996786  0.02002939    -0.02800
C1238       C  0.90404459  0.61481316  0.02734876    -0.02800
C1239       C  0.91743764  0.64391669  0.98751416     0.07100
C1240       C  0.90606417  0.64630869  0.93835545    -0.03000
Br1241     Br  0.93037861  0.67990367  0.87469339    -0.01500
Br1242     Br  0.85782216  0.63322098  0.87293757    -0.01600
Br1243     Br  0.92239340  0.60811443  0.09117644    -0.01600
Br1244     Br  0.86560005  0.54888237  0.06721182    -0.01500
C1245       C  0.77893517  0.88912766  0.46203364    -0.02700
C1246       C  0.76918568  0.86148832  0.50446142     0.07000
C1247       C  0.76235290  0.86168790  0.55701400    -0.02800
C1248       C  0.76042943  0.88746743  0.56579358    -0.02800
C1249       C  0.76433137  0.91301134  0.52180198     0.07100
C1250       C  0.77697597  0.91488503  0.47071004    -0.03000
Br1251     Br  0.79298938  0.95296198  0.41242472    -0.01500
Br1252     Br  0.79577464  0.89210766  0.39181040    -0.01600
Br1253     Br  0.75242743  0.88667948  0.63888481    -0.01600
Br1254     Br  0.75340316  0.82617017  0.61781801    -0.01500
C1255       C  0.72511267  0.61556319  0.53449604    -0.02700
C1256       C  0.73618969  0.64263409  0.49060265     0.07000
C1257       C  0.74400748  0.64108656  0.43960919    -0.02800
C1258       C  0.74581461  0.61452455  0.43421329    -0.02800
C1259       C  0.74017567  0.58910059  0.48009750     0.07100
C1260       C  0.72704944  0.58899789  0.52969761    -0.03000
Br1261     Br  0.71158446  0.55338050  0.59288286    -0.01500
Br1262     Br  0.70593534  0.61455566  0.60148345    -0.01600
Br1263     Br  0.75533935  0.61377099  0.36260409    -0.01600
Br1264     Br  0.75313180  0.67538501  0.37643945    -0.01500
C1265       C  0.64987898  0.76838396  0.54163186    -0.02700
C1266       C  0.66065209  0.75281578  0.51443563     0.07000
C1267       C  0.63874714  0.72987479  0.49587339    -0.02800
C1268       C  0.60774059  0.72657081  0.49542503    -0.02800
C1269       C  0.59800828  0.74482686  0.51685140     0.07100
C1270       C  0.61824355  0.76343784  0.54466817    -0.03000
Br1271     Br  0.60388587  0.78480472  0.58241605    -0.01500
Br1272     Br  0.67890583  0.79945883  0.56866414    -0.01600
Br1273     Br  0.57873556  0.69769326  0.46442148    -0.01600
Br1274     Br  0.65151686  0.70318192  0.47106238    -0.01500
C1275       C  0.86779829  0.76774001  0.50786056    -0.02700
C1276       C  0.84534760  0.74869467  0.48347398     0.07000
C1277       C  0.85444571  0.73268985  0.45480987    -0.02800
C1278       C  0.88363564  0.73163777  0.45811576    -0.02800
C1279       C  0.90413743  0.74705807  0.48947904     0.07100
C1280       C  0.89696881  0.76667437  0.51137490    -0.03000
Br1281     Br  0.92695555  0.79169198  0.54678779    -0.01500
Br1282     Br  0.85847498  0.79549813  0.53575813    -0.01600
Br1283     Br  0.89342187  0.70588467  0.42476366    -0.01600
Br1284     Br  0.82619687  0.70990039  0.41457952    -0.01500
C1285       C  0.78589350  0.76347306  0.76789890    -0.02700
C1286       C  0.75816070  0.75893485  0.79775550     0.07000
C1287       C  0.72979061  0.74989839  0.77676423    -0.02800
C1288       C  0.72938424  0.74645639  0.72542721    -0.02800
C1289       C  0.75718480  0.75124949  0.69530176     0.07100
C1290       C  0.78540068  0.75962480  0.71685265    -0.03000
Br1291     Br  0.82387961  0.76732194  0.67560024    -0.01500
Br1292     Br  0.82484713  0.77597538  0.79614888    -0.01600
Br1293     Br  0.69038425  0.73394474  0.69729227    -0.01600
Br1294     Br  0.69094590  0.74012344  0.81986915    -0.01500
C1295       C  0.71844109  0.72317184  0.24196520    -0.02700
C1296       C  0.74103417  0.74467139  0.19727408     0.07000
C1297       C  0.76636578  0.77062998  0.20324457    -0.02800
C1298       C  0.76965456  0.77447339  0.25407642    -0.02800
C1299       C  0.74701928  0.75299791  0.29876695     0.07100
C1300       C  0.72115060  0.72760459  0.29246754    -0.03000
Br1301     Br  0.68889648  0.69941035  0.35269398    -0.01500
Br1302     Br  0.68338201  0.68810887  0.23350802    -0.01600
Br1303     Br  0.80555210  0.80872944  0.26290981    -0.01600
Br1304     Br  0.79667553  0.80094907  0.14191135    -0.01500
C1305       C  0.78222837  0.88961967  0.97900334    -0.02700
C1306       C  0.76621126  0.85972947  0.01586473     0.07000
C1307       C  0.74991648  0.85635300  0.06506639    -0.02800
C1308       C  0.74828794  0.88194831  0.07539055    -0.02800
C1309       C  0.75882096  0.91035380  0.03392623     0.07100
C1310       C  0.77776956  0.91446331  0.98700681    -0.03000
Br1311     Br  0.79938725  0.95448946  0.93412969    -0.01500
Br1312     Br  0.81120016  0.89701375  0.91775663    -0.01600
Br1313     Br  0.73198327  0.87704471  0.14742088    -0.01600
Br1314     Br  0.72620909  0.81636517  0.11714906    -0.01500
C1315       C  0.71640909  0.61333993  0.01966712    -0.02700
C1316       C  0.73002226  0.64248100  0.98046968     0.07000
C1317       C  0.74412546  0.64484774  0.93022456    -0.02800
C1318       C  0.75112313  0.62095680  0.92390533    -0.02800
C1319       C  0.74196511  0.59318770  0.96686436     0.07100
C1320       C  0.72234913  0.58895634  0.01332161    -0.03000
Br1321     Br  0.70251355  0.54985501  0.06929042    -0.01500
Br1322     Br  0.68727455  0.60607782  0.08065090    -0.01600
Br1323     Br  0.77495523  0.62847206  0.85621603    -0.01600
Br1324     Br  0.75311862  0.68010729  0.86863497    -0.01500
C1325       C  0.66149330  0.80129268  0.96005703    -0.02700
C1326       C  0.66414931  0.77381185  0.98308492     0.07000
C1327       C  0.63674327  0.74627738  0.00708697    -0.02800
C1328       C  0.60675892  0.74604172  0.00594303    -0.02800
C1329       C  0.60417222  0.77320829  0.97955626     0.07100
C1330       C  0.63185377  0.80093908  0.95725138    -0.03000
Br1331     Br  0.63006448  0.83946551  0.92395247    -0.01500
Br1332     Br  0.69861702  0.84032307  0.93442617    -0.01600
Br1333     Br  0.56939700  0.70828604  0.03826187    -0.01600
Br1334     Br  0.64024434  0.70878431  0.03939560    -0.01500
C1335       C  0.84905593  0.72925956  0.96954857    -0.02700
C1336       C  0.83638836  0.73728482  0.00911046     0.07000
C1337       C  0.85580662  0.74998141  0.04422305    -0.02800
C1338       C  0.88612550  0.75121926  0.04393418    -0.02800
C1339       C  0.89786291  0.74078252  0.00718876     0.07100
C1340       C  0.88004354  0.73228648  0.96713566    -0.03000
Br1341     Br  0.89690121  0.72393222  0.90886276    -0.01500
Br1342     Br  0.82326629  0.71090700  0.92162620    -0.01600
Br1343     Br  0.91206894  0.76862197  0.09252249    -0.01600
Br1344     Br  0.84131093  0.76658366  0.09183205    -0.01500
loop_ 
_geom_bond_atom_site_label_1 
_geom_bond_atom_site_label_2 
_geom_bond_distance 
_geom_bond_site_symmetry_2 
_ccdc_geom_bond_type 
O1           Ni7   1.933       .  S
O1           C22   1.271       .  A
O2          Ni25   1.900       .  S
O2           C11   1.265       .  A
O3           Ni7   1.917       .  S
O3          Ni25   1.910   1_556  S
O3          Ni19   1.919       .  S
O3           H26   0.966       .  S
C4           O21   1.271       .  A
C4           O13   1.276   1_556  A
C4          C308   1.506       .  S
O5          Ni24   1.935       .  S
O5           C11   1.272       .  A
O6          Ni24   1.905       .  S
O6            C8   1.269       .  A
Ni7          O10   1.934       .  S
Ni7          O12   1.896       .  S
C8           O18   1.274   1_554  A
C8          C328   1.488       .  S
O9          Ni25   1.922       .  S
O9           C15   1.272       .  A
O10          C15   1.275   1_556  A
C11         C288   1.474       .  S
O12          C14   1.268       .  A
O13         Ni24   1.936       .  S
C14          O20   1.277   1_556  A
C14         C318   1.482       .  S
C15         C298   1.504       .  S
H16          O17   0.967       .  S
O17         Ni25   1.922       .  S
O17         Ni19   1.911   1_554  S
O17         Ni24   1.927       .  S
O18         Ni19   1.936       .  S
Ni19         O23   1.899       .  S
Ni19         O21   1.922       .  S
O20         Ni25   1.948       .  S
C22          O23   1.264       .  A
C22         C278   1.478       .  S
O27         Ni33   1.930       .  S
O27          C48   1.271       .  A
O28         Ni51   1.903       .  S
O28          C37   1.266       .  A
O29         Ni33   1.924       .  S
O29         Ni51   1.911       .  S
O29         Ni45   1.920       .  S
O29          H52   0.966       .  S
C30          O47   1.269       .  A
C30          O39   1.273       .  A
C30         C248   1.498       .  S
O31         Ni50   1.930       .  S
O31          C37   1.270       .  A
O32         Ni50   1.898       .  S
O32          C34   1.270       .  A
Ni33         O36   1.939       .  S
Ni33         O38   1.902       .  S
C34          O44   1.279       .  A
C34         C268   1.487       .  S
O35         Ni51   1.914       .  S
O35          C41   1.269       .  A
O36          C41   1.274       .  A
C37         C281   1.481       .  S
O38          C40   1.269       .  A
O39         Ni50   1.934       .  S
C40          O46   1.276       .  A
C40         C258   1.483       .  S
C41         C238   1.495       .  S
H42          O43   0.966       .  S
O43         Ni51   1.922       .  S
O43         Ni45   1.916       .  S
O43         Ni50   1.924       .  S
O44         Ni45   1.954       .  S
Ni45         O49   1.905       .  S
Ni45         O47   1.921       .  S
O46         Ni51   1.949       .  S
C48          O49   1.267       .  A
C48         C291   1.474       .  S
O53         Ni59   1.939       .  S
O53          C74   1.273       .  A
O54         Ni77   1.908       .  S
O54         C735   1.266       .  A
O55         Ni59   1.919       .  S
O55         Ni77   1.905   1_554  S
O55        Ni743   1.911       .  S
O55          H78   0.966       .  S
C56          O73   1.273   1_556  A
C56          O65   1.273       .  A
C56         C218   1.489   1_556  S
O57         Ni76   1.926       .  S
O57          C63   1.268       .  A
O58         Ni76   1.898       .  S
O58          C60   1.269       .  A
Ni59         O62   1.932       .  S
Ni59         O64   1.910       .  S
C60          O70   1.277   1_556  A
C60         C321   1.485       .  S
O61         Ni77   1.924       .  S
O61          C67   1.275   1_556  A
O62          C67   1.276       .  A
C63         O726   1.266   1_455  A
C63         C198   1.474       .  S
O64          C66   1.270       .  A
O65         Ni76   1.926       .  S
C66          O72   1.272   1_554  A
C66         C331   1.495       .  S
C67         C231   1.501   1_554  S
H68          O69   0.966   1_655  S
O69         Ni71   1.919   1_556  S
O69         Ni76   1.919       .  S
O69        Ni749   1.925   1_455  S
O70         Ni71   1.943       .  S
Ni71         O75   1.912       .  S
Ni71         O73   1.921       .  S
Ni71        O727   1.911   1_455  S
O72         Ni77   1.935       .  S
C74         O747   1.268       .  A
C74         C211   1.481       .  S
O75         C746   1.268   1_455  A
Ni77        O741   1.925       .  S
O79         Ni85   1.926       .  S
O79         C100   1.270       .  A
O80        Ni103   1.918       .  S
O80         C761   1.271       .  A
O81         Ni85   1.903       .  S
O81        Ni103   1.909       .  S
O81        Ni769   1.911       .  S
O81         H104   0.966       .  S
C82          O99   1.279       .  A
C82          O91   1.277       .  A
C82         C178   1.482       .  S
O83        Ni102   1.932       .  S
O83          C89   1.271       .  A
O84        Ni102   1.911       .  S
O84          C86   1.271       .  A
Ni85         O88   1.916       .  S
Ni85         O90   1.912       .  S
C86          O96   1.271       .  A
C86         C261   1.480       .  S
O87        Ni103   1.914       .  S
O87          C93   1.276       .  A
O88          C93   1.275       .  A
C89         O752   1.271   1_455  A
C89         C208   1.488       .  S
O90          C92   1.271       .  A
O91        Ni102   1.922       .  S
C92          O98   1.273       .  A
C92         C271   1.485       .  S
C93         C188   1.478       .  S
H94          O95   0.966       .  S
O95         Ni97   1.905       .  S
O95        Ni102   1.901       .  S
O95        Ni775   1.909   1_455  S
O96         Ni97   1.927       .  S
Ni97        O101   1.918       .  S
Ni97         O99   1.922       .  S
Ni97        O753   1.911   1_455  S
O98        Ni103   1.930       .  S
C100        O773   1.270       .  A
C100        C201   1.484       .  S
O101        C772   1.270   1_455  A
Ni103       O767   1.909       .  S
O105       Ni111   1.926       .  S
O105        C126   1.269       .  A
O106       Ni129   1.922       .  S
O106        C451   1.270       .  A
O107       Ni111   1.910       .  S
O107       Ni129   1.913   1_556  S
O107       Ni459   1.920   1_545  S
O107        H130   0.966       .  S
C108        O125   1.276   1_554  A
C108        O117   1.279       .  A
C108        C221   1.491       .  S
O109       Ni128   1.928       .  S
O109        C115   1.270       .  A
O110       Ni128   1.915       .  S
O110        C112   1.268       .  A
Ni111       O114   1.920       .  S
Ni111       O116   1.923       .  S
C112        O122   1.273   1_554  A
C112        C301   1.511       .  S
O113       Ni129   1.936       .  S
O113        C119   1.282   1_554  A
O114        C119   1.274       .  A
C115        O442   1.271       .  A
C115        C168   1.496       .  S
O116        C118   1.270       .  A
O117       Ni128   1.935       .  S
C118        O124   1.271   1_556  A
C118        C311   1.516       .  S
C119        C228   1.504       .  S
H120        O121   0.966       .  S
O121       Ni123   1.908   1_554  S
O121       Ni128   1.911       .  S
O121       Ni465   1.925       .  S
O122       Ni123   1.937       .  S
Ni123       O127   1.912       .  S
Ni123       O125   1.922       .  S
Ni123       O443   1.920       .  S
O124       Ni129   1.927       .  S
C126        O463   1.266   1_545  A
C126        C161   1.477   1_545  S
O127        C462   1.267       .  A
Ni129       O457   1.924   1_545  S
O131       Ni137   1.933       .  S
O131        C152   1.271       .  A
O132       Ni155   1.898       .  S
O132        C477   1.266   1_545  A
O133       Ni137   1.911       .  S
O133       Ni155   1.896       .  S
O133       Ni485   1.905   1_545  S
O133        H156   0.966       .  S
C134        O151   1.271       .  A
C134        O143   1.277       .  A
C134        C181   1.471       .  S
O135       Ni154   1.940       .  S
O135        C141   1.274       .  A
O136       Ni154   1.913       .  S
O136        C138   1.267       .  A
Ni137       O140   1.919       .  S
Ni137       O142   1.913       .  S
C138        O148   1.273       .  A
C138        C241   1.504       .  S
O139       Ni155   1.910       .  S
O139        C145   1.273       .  A
O140        C145   1.275       .  A
C141        O468   1.266       .  A
C141        C158   1.477       .  S
O142        C144   1.268       .  A
O143       Ni154   1.941       .  S
C144        O150   1.271       .  A
C144        C251   1.514       .  S
C145        C191   1.472       .  S
H146        O147   0.966       .  S
O147       Ni149   1.909       .  S
O147       Ni154   1.911       .  S
O147       Ni491   1.909       .  S
O148       Ni149   1.937       .  S
Ni149       O153   1.908       .  S
Ni149       O151   1.904       .  S
Ni149       O469   1.906       .  S
O150       Ni155   1.931       .  S
C152        O489   1.267   1_545  A
C152        C171   1.490       .  S
O153        C488   1.268       .  A
Ni155       O483   1.910   1_545  S
C157        C158   1.410       .  A
C157        C162   1.408       .  A
C157       Br164   1.931       .  S
C158        C495   1.410       .  A
C159        C160   1.409       .  A
C159        C494   1.411   1_545  A
C159       Br166   1.930       .  S
C160        C161   1.411   1_545  A
C160       Br165   1.932       .  S
C161        C498   1.408       .  A
C162        C497   1.408       .  A
C162       Br163   1.926       .  S
C167        C172   1.413       .  A
C167        C504   1.415       .  A
C167       Br174   1.931       .  S
C168        C169   1.419       .  A
C168        C503   1.415       .  A
C169        C170   1.410       .  A
C169       Br176   1.935       .  S
C170        C507   1.411       .  A
C170       Br175   1.935       .  S
C171        C172   1.416       .  A
C171        C506   1.412   1_545  A
C172       Br173   1.935       .  S
C177        C178   1.413       .  A
C177        C182   1.410       .  A
C177       Br184   1.930       .  S
C178        C179   1.418       .  A
C179        C180   1.405       .  A
C179       Br186   1.936       .  S
C180        C181   1.405       .  A
C180       Br185   1.932       .  S
C181        C182   1.408       .  A
C182       Br183   1.929       .  S
C187        C188   1.417       .  A
C187        C192   1.402       .  A
C187       Br194   1.940       .  S
C188        C189   1.413       .  A
C189        C190   1.408       .  A
C189       Br196   1.931       .  S
C190        C191   1.408       .  A
C190       Br195   1.930       .  S
C191        C192   1.410       .  A
C192       Br193   1.935       .  S
C197        C202   1.407       .  A
C197        C870   1.405       .  A
C197       Br204   1.930       .  S
C198        C199   1.409       .  A
C198        C869   1.405   1_455  A
C199        C200   1.410       .  A
C199       Br206   1.931       .  S
C200        C873   1.413   1_455  A
C200       Br205   1.930       .  S
C201        C202   1.414       .  A
C201        C872   1.413       .  A
C202       Br203   1.926       .  S
C207        C212   1.409       .  A
C207        C880   1.412       .  A
C207       Br214   1.932       .  S
C208        C209   1.415       .  A
C208        C879   1.413   1_455  A
C209        C210   1.414       .  A
C209       Br216   1.929       .  S
C210        C883   1.410   1_455  A
C210       Br215   1.930       .  S
C211        C212   1.408       .  A
C211        C882   1.410       .  A
C212       Br213   1.928       .  S
C217        C218   1.414   1_556  A
C217        C222   1.416       .  A
C217       Br224   1.929       .  S
C218        C219   1.414       .  A
C219        C220   1.407       .  A
C219       Br226   1.934       .  S
C220        C221   1.412       .  A
C220       Br225   1.930       .  S
C221        C222   1.414   1_554  A
C222       Br223   1.929       .  S
C227        C228   1.424       .  A
C227        C232   1.411       .  A
C227       Br234   1.937       .  S
C228        C229   1.415   1_556  A
C229        C230   1.414       .  A
C229       Br236   1.933       .  S
C230        C231   1.417   1_554  A
C230       Br235   1.932       .  S
C231        C232   1.413       .  A
C232       Br233   1.935       .  S
C237        C238   1.414       .  A
C237        C242   1.411       .  A
C237       Br244   1.934       .  S
C238        C239   1.415       .  A
C239        C240   1.413       .  A
C239       Br246   1.932       .  S
C240        C241   1.421       .  A
C240       Br245   1.937       .  S
C241        C242   1.418       .  A
C242       Br243   1.936       .  S
C247        C248   1.412       .  A
C247        C252   1.413       .  A
C247       Br254   1.937       .  S
C248        C249   1.413       .  A
C249        C250   1.415       .  A
C249       Br256   1.931       .  S
C250        C251   1.426       .  A
C250       Br255   1.939       .  S
C251        C252   1.426       .  A
C252       Br253   1.938       .  S
C257        C258   1.411       .  A
C257        C262   1.409       .  A
C257       Br264   1.928       .  S
C258        C259   1.410       .  A
C259        C260   1.408       .  A
C259       Br266   1.924       .  S
C260        C261   1.407       .  A
C260       Br265   1.927       .  S
C261        C262   1.414       .  A
C262       Br263   1.932       .  S
C267        C268   1.410       .  A
C267        C272   1.409       .  A
C267       Br274   1.927       .  S
C268        C269   1.411       .  A
C269        C270   1.410       .  A
C269       Br276   1.923       .  S
C270        C271   1.414       .  A
C270       Br275   1.933       .  S
C271        C272   1.410       .  A
C272       Br273   1.923       .  S
C277        C278   1.408       .  A
C277        C282   1.408       .  A
C277       Br284   1.931       .  S
C278        C279   1.412       .  A
C279        C280   1.408       .  A
C279       Br286   1.932       .  S
C280        C281   1.410       .  A
C280       Br285   1.931       .  S
C281        C282   1.413       .  A
C282       Br283   1.927       .  S
C287        C288   1.407       .  A
C287        C292   1.407       .  A
C287       Br294   1.929       .  S
C288        C289   1.411       .  A
C289        C290   1.408       .  A
C289       Br296   1.927       .  S
C290        C291   1.408       .  A
C290       Br295   1.929       .  S
C291        C292   1.410       .  A
C292       Br293   1.925       .  S
C297        C298   1.415   1_556  A
C297        C302   1.415       .  A
C297       Br304   1.933       .  S
C298        C299   1.419       .  A
C299        C300   1.414       .  A
C299       Br306   1.934       .  S
C300        C301   1.422       .  A
C300       Br305   1.938       .  S
C301        C302   1.419   1_554  A
C302       Br303   1.933       .  S
C307        C308   1.411   1_554  A
C307        C312   1.414       .  A
C307       Br314   1.935       .  S
C308        C309   1.416       .  A
C309        C310   1.418       .  A
C309       Br316   1.936       .  S
C310        C311   1.428       .  A
C310       Br315   1.937       .  S
C311        C312   1.425   1_556  A
C312       Br313   1.937       .  S
C317        C318   1.411       .  A
C317        C322   1.400       .  A
C317       Br324   1.937       .  S
C318        C319   1.411   1_556  A
C319        C320   1.416       .  A
C319       Br326   1.926       .  S
C320        C321   1.413   1_554  A
C320       Br325   1.927       .  S
C321        C322   1.415       .  A
C322       Br323   1.937       .  S
C327        C328   1.411   1_556  A
C327        C332   1.409       .  A
C327       Br334   1.930       .  S
C328        C329   1.411       .  A
C329        C330   1.410       .  A
C329       Br336   1.927       .  S
C330        C331   1.413       .  A
C330       Br335   1.930       .  S
C331        C332   1.417   1_554  A
C332       Br333   1.926       .  S
O337       Ni343   1.934       .  S
O337        C358   1.271       .  A
O338       Ni361   1.900       .  S
O338        C347   1.265       .  A
O339       Ni343   1.917       .  S
O339       Ni361   1.910   1_556  S
O339       Ni355   1.920       .  S
O339        H362   0.966       .  S
C340        O357   1.272       .  A
C340        O349   1.276   1_556  A
C340        C644   1.507       .  S
O341       Ni360   1.936       .  S
O341        C347   1.272       .  A
O342       Ni360   1.905       .  S
O342        C344   1.269       .  A
Ni343       O346   1.934       .  S
Ni343       O348   1.895       .  S
C344        O354   1.274   1_554  A
C344        C664   1.488       .  S
O345       Ni361   1.922       .  S
O345        C351   1.272       .  A
O346        C351   1.275   1_556  A
C347        C624   1.474       .  S
O348        C350   1.268       .  A
O349       Ni360   1.935       .  S
C350        O356   1.278   1_556  A
C350        C654   1.481       .  S
C351        C634   1.505       .  S
H352        O353   0.967       .  S
O353       Ni361   1.922       .  S
O353       Ni355   1.911   1_554  S
O353       Ni360   1.927       .  S
O354       Ni355   1.935       .  S
Ni355       O359   1.900       .  S
Ni355       O357   1.924       .  S
O356       Ni361   1.948       .  S
C358        O359   1.264       .  A
C358        C614   1.478       .  S
O363       Ni369   1.931       .  S
O363        C384   1.271       .  A
O364       Ni387   1.902       .  S
O364        C373   1.266       .  A
O365       Ni369   1.924       .  S
O365       Ni387   1.911       .  S
O365       Ni381   1.920       .  S
O365        H388   0.966       .  S
C366        O383   1.269       .  A
C366        O375   1.273       .  A
C366        C584   1.498       .  S
O367       Ni386   1.930       .  S
O367        C373   1.270       .  A
O368       Ni386   1.899       .  S
O368        C370   1.270       .  A
Ni369       O372   1.939       .  S
Ni369       O374   1.903       .  S
C370        O380   1.280       .  A
C370        C604   1.487       .  S
O371       Ni387   1.914       .  S
O371        C377   1.269       .  A
O372        C377   1.274       .  A
C373        C617   1.480       .  S
O374        C376   1.269       .  A
O375       Ni386   1.934       .  S
C376        O382   1.276       .  A
C376        C594   1.483       .  S
C377        C574   1.495       .  S
H378        O379   0.966       .  S
O379       Ni387   1.922       .  S
O379       Ni381   1.916       .  S
O379       Ni386   1.924       .  S
O380       Ni381   1.954       .  S
Ni381       O385   1.905       .  S
Ni381       O383   1.920       .  S
O382       Ni387   1.950       .  S
C384        O385   1.267       .  A
C384        C627   1.475       .  S
O389       Ni395   1.939       .  S
O389        C410   1.273       .  A
O390       Ni413   1.909       .  S
O390       C1071   1.266       .  A
O391       Ni395   1.919       .  S
O391       Ni413   1.905   1_554  S
O391      Ni1079   1.911       .  S
O391        H414   0.966       .  S
C392        O409   1.274   1_556  A
C392        O401   1.273       .  A
C392        C554   1.489   1_556  S
O393       Ni412   1.926       .  S
O393        C399   1.268       .  A
O394       Ni412   1.898       .  S
O394        C396   1.268       .  A
Ni395       O398   1.932       .  S
Ni395       O400   1.910       .  S
C396        O406   1.277   1_556  A
C396        C657   1.485       .  S
O397       Ni413   1.926       .  S
O397        C403   1.276   1_556  A
O398        C403   1.276       .  A
C399       O1062   1.266   1_455  A
C399        C534   1.474       .  S
O400        C402   1.270       .  A
O401       Ni412   1.927       .  S
C402        O408   1.272   1_554  A
C402        C667   1.495       .  S
C403        C567   1.502   1_554  S
H404        O405   0.966   1_655  S
O405      Ni1085   1.925   1_455  S
O405       Ni407   1.919   1_556  S
O405       Ni412   1.919       .  S
O406       Ni407   1.942       .  S
Ni407       O411   1.912       .  S
Ni407       O409   1.921       .  S
Ni407      O1063   1.911   1_455  S
O408       Ni413   1.935       .  S
C410       O1083   1.268       .  A
C410        C547   1.482       .  S
O411       C1082   1.268   1_455  A
Ni413      O1077   1.925       .  S
O415       Ni421   1.925       .  S
O415        C436   1.270       .  A
O416       Ni439   1.920       .  S
O416       C1097   1.272       .  A
O417       Ni421   1.902       .  S
O417       Ni439   1.910       .  S
O417      Ni1105   1.910       .  S
O417        H440   0.966       .  S
C418        O435   1.278       .  A
C418        O427   1.277       .  A
C418        C514   1.480       .  S
O419       Ni438   1.932       .  S
O419        C425   1.271       .  A
O420       Ni438   1.912       .  S
O420        C422   1.271       .  A
Ni421       O424   1.915       .  S
Ni421       O426   1.912       .  S
C422        O432   1.271       .  A
C422        C597   1.481       .  S
O423       Ni439   1.914       .  S
O423        C429   1.276       .  A
O424        C429   1.275       .  A
C425       O1088   1.272   1_455  A
C425        C544   1.488       .  S
O426        C428   1.271       .  A
O427       Ni438   1.922       .  S
C428        O434   1.273       .  A
C428        C607   1.484       .  S
C429        C524   1.478       .  S
H430        O431   0.966       .  S
O431      Ni1111   1.909   1_455  S
O431       Ni433   1.906       .  S
O431       Ni438   1.901       .  S
O432       Ni433   1.927       .  S
Ni433       O437   1.919       .  S
Ni433       O435   1.920       .  S
Ni433      O1089   1.910   1_455  S
O434       Ni439   1.931       .  S
C436       O1109   1.270       .  A
C436        C537   1.486       .  S
O437       C1108   1.270   1_455  A
Ni439      O1103   1.909       .  S
O441       Ni447   1.925       .  S
O441        C462   1.269       .  A
O442       Ni465   1.924       .  S
O443       Ni447   1.909       .  S
O443       Ni465   1.913   1_556  S
O443        H466   0.966       .  S
C444        O461   1.276   1_554  A
C444        O453   1.280       .  A
C444        C557   1.491       .  S
O445       Ni464   1.930       .  S
O445        C451   1.270   1_565  A
O446       Ni464   1.916       .  S
O446        C448   1.268       .  A
Ni447       O450   1.919       .  S
Ni447       O452   1.923       .  S
C448        O458   1.273   1_554  A
C448        C637   1.511       .  S
O449       Ni465   1.938       .  S
O449        C455   1.283   1_554  A
O450        C455   1.274       .  A
C451        C504   1.495       .  S
O452        C454   1.270       .  A
O453       Ni464   1.937       .  S
C454        O460   1.271   1_556  A
C454        C647   1.516       .  S
C455        C564   1.504       .  S
H456        O457   0.966       .  S
O457       Ni459   1.907   1_554  S
O457       Ni464   1.911       .  S
O458       Ni459   1.937       .  S
Ni459       O463   1.910       .  S
Ni459       O461   1.921       .  S
O460       Ni465   1.928       .  S
C462        C497   1.478       .  S
O467       Ni473   1.933       .  S
O467        C488   1.271       .  A
O468       Ni491   1.898       .  S
O469       Ni473   1.910       .  S
O469       Ni491   1.896       .  S
O469        H492   0.966       .  S
C470        O487   1.271       .  A
C470        O479   1.277       .  A
C470        C517   1.471       .  S
O471       Ni490   1.940       .  S
O471        C477   1.274       .  A
O472       Ni490   1.912       .  S
O472        C474   1.267       .  A
Ni473       O476   1.920       .  S
Ni473       O478   1.914       .  S
C474        O484   1.273       .  A
C474        C577   1.504       .  S
O475       Ni491   1.910       .  S
O475        C481   1.273       .  A
O476        C481   1.275       .  A
C477        C494   1.479       .  S
O478        C480   1.269       .  A
O479       Ni490   1.941       .  S
C480        O486   1.271       .  A
C480        C587   1.515       .  S
C481        C527   1.473       .  S
H482        O483   0.966       .  S
O483       Ni485   1.909       .  S
O483       Ni490   1.911       .  S
O484       Ni485   1.938       .  S
Ni485       O489   1.908       .  S
Ni485       O487   1.903       .  S
O486       Ni491   1.931       .  S
C488        C507   1.490       .  S
C493        C494   1.411       .  A
C493        C498   1.408       .  A
C493       Br500   1.931       .  S
C495        C496   1.409       .  A
C495       Br502   1.930       .  S
C496        C497   1.411       .  A
C496       Br501   1.932       .  S
C498       Br499   1.927       .  S
C503        C508   1.413       .  A
C503       Br510   1.930       .  S
C504        C505   1.419   1_545  A
C505        C506   1.410       .  A
C505       Br512   1.935       .  S
C506       Br511   1.935       .  S
C507        C508   1.416       .  A
C508       Br509   1.935       .  S
C513        C514   1.413       .  A
C513        C518   1.410       .  A
C513       Br520   1.930       .  S
C514        C515   1.417       .  A
C515        C516   1.404       .  A
C515       Br522   1.936       .  S
C516        C517   1.405       .  A
C516       Br521   1.931       .  S
C517        C518   1.407       .  A
C518       Br519   1.929       .  S
C523        C524   1.417       .  A
C523        C528   1.402       .  A
C523       Br530   1.940       .  S
C524        C525   1.413       .  A
C525        C526   1.408       .  A
C525       Br532   1.932       .  S
C526        C527   1.409       .  A
C526       Br531   1.930       .  S
C527        C528   1.411       .  A
C528       Br529   1.936       .  S
C533       C1206   1.405       .  A
C533        C538   1.408       .  A
C533       Br540   1.931       .  S
C534       C1205   1.405   1_455  A
C534        C535   1.409       .  A
C535        C536   1.410       .  A
C535       Br542   1.931       .  S
C536       C1209   1.414   1_455  A
C536       Br541   1.931       .  S
C537       C1208   1.414       .  A
C537        C538   1.415       .  A
C538       Br539   1.926       .  S
C543       C1216   1.413       .  A
C543        C548   1.409       .  A
C543       Br550   1.931       .  S
C544       C1215   1.413   1_455  A
C544        C545   1.415       .  A
C545        C546   1.414       .  A
C545       Br552   1.929       .  S
C546       C1219   1.410   1_455  A
C546       Br551   1.930       .  S
C547       C1218   1.410       .  A
C547        C548   1.407       .  A
C548       Br549   1.928       .  S
C553        C554   1.414   1_556  A
C553        C558   1.416       .  A
C553       Br560   1.928       .  S
C554        C555   1.414       .  A
C555        C556   1.406       .  A
C555       Br562   1.934       .  S
C556        C557   1.411       .  A
C556       Br561   1.929       .  S
C557        C558   1.414   1_554  A
C558       Br559   1.929       .  S
C563        C564   1.425       .  A
C563        C568   1.411       .  A
C563       Br570   1.937       .  S
C564        C565   1.414   1_556  A
C565        C566   1.414       .  A
C565       Br572   1.933       .  S
C566        C567   1.418   1_554  A
C566       Br571   1.932       .  S
C567        C568   1.413       .  A
C568       Br569   1.934       .  S
C573        C574   1.413       .  A
C573        C578   1.411       .  A
C573       Br580   1.933       .  S
C574        C575   1.415       .  A
C575        C576   1.412       .  A
C575       Br582   1.932       .  S
C576        C577   1.421       .  A
C576       Br581   1.937       .  S
C577        C578   1.419       .  A
C578       Br579   1.936       .  S
C583        C584   1.411       .  A
C583        C588   1.413       .  A
C583       Br590   1.937       .  S
C584        C585   1.413       .  A
C585        C586   1.415       .  A
C585       Br592   1.932       .  S
C586        C587   1.427       .  A
C586       Br591   1.939       .  S
C587        C588   1.426       .  A
C588       Br589   1.938       .  S
C593        C594   1.411       .  A
C593        C598   1.409       .  A
C593       Br600   1.927       .  S
C594        C595   1.410       .  A
C595        C596   1.408       .  A
C595       Br602   1.925       .  S
C596        C597   1.408       .  A
C596       Br601   1.927       .  S
C597        C598   1.414       .  A
C598       Br599   1.932       .  S
C603        C604   1.410       .  A
C603        C608   1.409       .  A
C603       Br610   1.927       .  S
C604        C605   1.411       .  A
C605        C606   1.409       .  A
C605       Br612   1.922       .  S
C606        C607   1.413       .  A
C606       Br611   1.933       .  S
C607        C608   1.409       .  A
C608       Br609   1.924       .  S
C613        C614   1.409       .  A
C613        C618   1.408       .  A
C613       Br620   1.931       .  S
C614        C615   1.412       .  A
C615        C616   1.408       .  A
C615       Br622   1.932       .  S
C616        C617   1.410       .  A
C616       Br621   1.932       .  S
C617        C618   1.413       .  A
C618       Br619   1.927       .  S
C623        C624   1.407       .  A
C623        C628   1.408       .  A
C623       Br630   1.929       .  S
C624        C625   1.411       .  A
C625        C626   1.408       .  A
C625       Br632   1.928       .  S
C626        C627   1.408       .  A
C626       Br631   1.929       .  S
C627        C628   1.410       .  A
C628       Br629   1.926       .  S
C633        C634   1.416   1_556  A
C633        C638   1.415       .  A
C633       Br640   1.933       .  S
C634        C635   1.419       .  A
C635        C636   1.414       .  A
C635       Br642   1.934       .  S
C636        C637   1.422       .  A
C636       Br641   1.938       .  S
C637        C638   1.419   1_554  A
C638       Br639   1.934       .  S
C643        C644   1.412   1_554  A
C643        C648   1.414       .  A
C643       Br650   1.935       .  S
C644        C645   1.416       .  A
C645        C646   1.418       .  A
C645       Br652   1.936       .  S
C646        C647   1.428       .  A
C646       Br651   1.937       .  S
C647        C648   1.425   1_556  A
C648       Br649   1.937       .  S
C653        C654   1.411       .  A
C653        C658   1.401       .  A
C653       Br660   1.937       .  S
C654        C655   1.411   1_556  A
C655        C656   1.416       .  A
C655       Br662   1.926       .  S
C656        C657   1.414   1_554  A
C656       Br661   1.927       .  S
C657        C658   1.416       .  A
C658       Br659   1.938       .  S
C663        C664   1.412   1_556  A
C663        C668   1.408       .  A
C663       Br670   1.930       .  S
C664        C665   1.412       .  A
C665        C666   1.411       .  A
C665       Br672   1.928       .  S
C666        C667   1.414       .  A
C666       Br671   1.929       .  S
C667        C668   1.417   1_554  A
C668       Br669   1.927       .  S
O673       Ni679   1.933       .  S
O673        C694   1.271       .  A
O674       Ni697   1.900       .  S
O674        C683   1.265       .  A
O675       Ni679   1.917       .  S
O675       Ni697   1.910   1_556  S
O675       Ni691   1.919       .  S
O675        H698   0.966       .  S
C676        O693   1.271       .  A
C676        O685   1.276   1_556  A
C676        C980   1.506       .  S
O677       Ni696   1.935       .  S
O677        C683   1.272       .  A
O678       Ni696   1.905       .  S
O678        C680   1.269       .  A
Ni679       O682   1.934       .  S
Ni679       O684   1.896       .  S
C680        O690   1.274   1_554  A
C680       C1000   1.488       .  S
O681       Ni697   1.922       .  S
O681        C687   1.272       .  A
O682        C687   1.275   1_556  A
C683        C960   1.474       .  S
O684        C686   1.268       .  A
O685       Ni696   1.936       .  S
C686        O692   1.277   1_556  A
C686        C990   1.482       .  S
C687        C970   1.504       .  S
H688        O689   0.967       .  S
O689       Ni697   1.922       .  S
O689       Ni691   1.910   1_554  S
O689       Ni696   1.927       .  S
O690       Ni691   1.936       .  S
Ni691       O695   1.899       .  S
Ni691       O693   1.922       .  S
O692       Ni697   1.948       .  S
C694        O695   1.264       .  A
C694        C950   1.478       .  S
O699       Ni705   1.930       .  S
O699        C720   1.271       .  A
O700       Ni723   1.903       .  S
O700        C709   1.266       .  A
O701       Ni705   1.924       .  S
O701       Ni723   1.911       .  S
O701       Ni717   1.920       .  S
O701        H724   0.966       .  S
C702        O719   1.269       .  A
C702        O711   1.273       .  A
C702        C920   1.498       .  S
O703       Ni722   1.930       .  S
O703        C709   1.270       .  A
O704       Ni722   1.898       .  S
O704        C706   1.270       .  A
Ni705       O708   1.939       .  S
Ni705       O710   1.902       .  S
C706        O716   1.280       .  A
C706        C940   1.487       .  S
O707       Ni723   1.914       .  S
O707        C713   1.269       .  A
O708        C713   1.274       .  A
C709        C953   1.481       .  S
O710        C712   1.269       .  A
O711       Ni722   1.934       .  S
C712        O718   1.276       .  A
C712        C930   1.483       .  S
C713        C910   1.495       .  S
H714        O715   0.966       .  S
O715       Ni723   1.922       .  S
O715       Ni717   1.916       .  S
O715       Ni722   1.924       .  S
O716       Ni717   1.954       .  S
Ni717       O721   1.905       .  S
Ni717       O719   1.921       .  S
O718       Ni723   1.949       .  S
C720        O721   1.267       .  A
C720        C963   1.474       .  S
O725       Ni731   1.939       .  S
O725        C746   1.273       .  A
O726       Ni749   1.908       .  S
O727       Ni731   1.919       .  S
O727       Ni749   1.905   1_554  S
O727        H750   0.966   1_655  S
C728        O745   1.273   1_556  A
C728        O737   1.273       .  A
C728        C890   1.489   1_556  S
O729       Ni748   1.926       .  S
O729        C735   1.268       .  A
O730       Ni748   1.898       .  S
O730        C732   1.268       .  A
Ni731       O734   1.932       .  S
Ni731       O736   1.910       .  S
C732        O742   1.277   1_556  A
C732        C993   1.485       .  S
O733       Ni749   1.924       .  S
O733        C739   1.275   1_556  A
O734        C739   1.276       .  A
C735        C870   1.474       .  S
O736        C738   1.270       .  A
O737       Ni748   1.926       .  S
C738        O744   1.272   1_554  A
C738       C1003   1.495       .  S
C739        C903   1.501   1_554  S
H740        O741   0.966       .  S
O741       Ni743   1.919   1_556  S
O741       Ni748   1.919       .  S
O742       Ni743   1.943       .  S
Ni743       O747   1.912       .  S
Ni743       O745   1.921       .  S
O744       Ni749   1.936       .  S
C746        C883   1.481       .  S
O751       Ni757   1.926       .  S
O751        C772   1.270       .  A
O752       Ni775   1.919       .  S
O753       Ni757   1.903       .  S
O753       Ni775   1.909       .  S
O753        H776   0.966       .  S
C754        O771   1.279       .  A
C754        O763   1.277       .  A
C754        C850   1.482       .  S
O755       Ni774   1.932       .  S
O755        C761   1.271       .  A
O756       Ni774   1.911       .  S
O756        C758   1.271       .  A
Ni757       O760   1.916       .  S
Ni757       O762   1.912       .  S
C758        O768   1.271       .  A
C758        C933   1.480       .  S
O759       Ni775   1.913       .  S
O759        C765   1.276       .  A
O760        C765   1.275       .  A
C761        C880   1.488       .  S
O762        C764   1.271       .  A
O763       Ni774   1.922       .  S
C764        O770   1.273       .  A
C764        C943   1.485       .  S
C765        C860   1.478       .  S
H766        O767   0.966       .  S
O767       Ni769   1.905       .  S
O767       Ni774   1.901       .  S
O768       Ni769   1.927       .  S
Ni769       O773   1.918       .  S
Ni769       O771   1.922       .  S
O770       Ni775   1.930       .  S
C772        C873   1.484       .  S
O777       Ni783   1.926       .  S
O777        C798   1.269       .  A
O778       Ni801   1.922       .  S
O778       C1123   1.270       .  A
O779       Ni783   1.910       .  S
O779       Ni801   1.913   1_556  S
O779      Ni1131   1.920   1_545  S
O779        H802   0.966       .  S
C780        O797   1.276   1_554  A
C780        O789   1.279       .  A
C780        C893   1.491       .  S
O781       Ni800   1.928       .  S
O781        C787   1.270       .  A
O782       Ni800   1.915       .  S
O782        C784   1.268       .  A
Ni783       O786   1.920       .  S
Ni783       O788   1.923       .  S
C784        O794   1.273   1_554  A
C784        C973   1.511       .  S
O785       Ni801   1.936       .  S
O785        C791   1.282   1_554  A
O786        C791   1.274       .  A
C787       O1114   1.271       .  A
C787        C840   1.496       .  S
O788        C790   1.270       .  A
O789       Ni800   1.935       .  S
C790        O796   1.271   1_556  A
C790        C983   1.516       .  S
C791        C900   1.504       .  S
H792        O793   0.966       .  S
O793      Ni1137   1.925       .  S
O793       Ni795   1.908   1_554  S
O793       Ni800   1.911       .  S
O794       Ni795   1.937       .  S
Ni795       O799   1.912       .  S
Ni795       O797   1.922       .  S
Ni795      O1115   1.920       .  S
O796       Ni801   1.927       .  S
C798       O1135   1.266   1_545  A
C798        C833   1.477   1_545  S
O799       C1134   1.267       .  A
Ni801      O1129   1.924   1_545  S
O803       Ni809   1.933       .  S
O803        C824   1.271       .  A
O804       Ni827   1.899       .  S
O804       C1149   1.266   1_545  A
O805       Ni809   1.911       .  S
O805       Ni827   1.897       .  S
O805      Ni1157   1.905   1_545  S
O805        H828   0.966       .  S
C806        O823   1.271       .  A
C806        O815   1.277       .  A
C806        C853   1.471       .  S
O807       Ni826   1.940       .  S
O807        C813   1.274       .  A
O808       Ni826   1.913       .  S
O808        C810   1.267       .  A
Ni809       O812   1.919       .  S
Ni809       O814   1.913       .  S
C810        O820   1.273       .  A
C810        C913   1.504       .  S
O811       Ni827   1.910       .  S
O811        C817   1.273       .  A
O812        C817   1.275       .  A
C813       O1140   1.266       .  A
C813        C830   1.477       .  S
O814        C816   1.268       .  A
O815       Ni826   1.941       .  S
C816        O822   1.271       .  A
C816        C923   1.514       .  S
C817        C863   1.472       .  S
H818        O819   0.966       .  S
O819      Ni1163   1.909       .  S
O819       Ni821   1.909       .  S
O819       Ni826   1.911       .  S
O820       Ni821   1.937       .  S
Ni821       O825   1.908       .  S
Ni821       O823   1.904       .  S
Ni821      O1141   1.906       .  S
O822       Ni827   1.931       .  S
C824       O1161   1.267   1_545  A
C824        C843   1.490       .  S
O825       C1160   1.268       .  A
Ni827      O1155   1.910   1_545  S
C829        C830   1.411       .  A
C829        C834   1.408       .  A
C829       Br836   1.931       .  S
C830       C1167   1.410       .  A
C831       C1166   1.411   1_545  A
C831        C832   1.409       .  A
C831       Br838   1.930       .  S
C832        C833   1.411   1_545  A
C832       Br837   1.932       .  S
C833       C1170   1.408       .  A
C834       C1169   1.408       .  A
C834       Br835   1.926       .  S
C839       C1176   1.415       .  A
C839        C844   1.413       .  A
C839       Br846   1.931       .  S
C840       C1175   1.415       .  A
C840        C841   1.419       .  A
C841        C842   1.410       .  A
C841       Br848   1.935       .  S
C842       C1179   1.411       .  A
C842       Br847   1.935       .  S
C843       C1178   1.412   1_545  A
C843        C844   1.416       .  A
C844       Br845   1.935       .  S
C849        C850   1.413       .  A
C849        C854   1.410       .  A
C849       Br856   1.930       .  S
C850        C851   1.418       .  A
C851        C852   1.405       .  A
C851       Br858   1.936       .  S
C852        C853   1.405       .  A
C852       Br857   1.932       .  S
C853        C854   1.408       .  A
C854       Br855   1.929       .  S
C859        C860   1.417       .  A
C859        C864   1.402       .  A
C859       Br866   1.940       .  S
C860        C861   1.413       .  A
C861        C862   1.408       .  A
C861       Br868   1.931       .  S
C862        C863   1.408       .  A
C862       Br867   1.930       .  S
C863        C864   1.410       .  A
C864       Br865   1.935       .  S
C869        C874   1.407       .  A
C869       Br876   1.930       .  S
C870        C871   1.409       .  A
C871        C872   1.410       .  A
C871       Br878   1.931       .  S
C872       Br877   1.930       .  S
C873        C874   1.414       .  A
C874       Br875   1.926       .  S
C879        C884   1.409       .  A
C879       Br886   1.932       .  S
C880        C881   1.415       .  A
C881        C882   1.414       .  A
C881       Br888   1.929       .  S
C882       Br887   1.930       .  S
C883        C884   1.408       .  A
C884       Br885   1.928       .  S
C889        C890   1.414   1_556  A
C889        C894   1.416       .  A
C889       Br896   1.929       .  S
C890        C891   1.414       .  A
C891        C892   1.407       .  A
C891       Br898   1.934       .  S
C892        C893   1.412       .  A
C892       Br897   1.930       .  S
C893        C894   1.414   1_554  A
C894       Br895   1.929       .  S
C899        C900   1.424       .  A
C899        C904   1.411       .  A
C899       Br906   1.937       .  S
C900        C901   1.415   1_556  A
C901        C902   1.414       .  A
C901       Br908   1.933       .  S
C902        C903   1.417   1_554  A
C902       Br907   1.932       .  S
C903        C904   1.413       .  A
C904       Br905   1.935       .  S
C909        C910   1.414       .  A
C909        C914   1.411       .  A
C909       Br916   1.934       .  S
C910        C911   1.416       .  A
C911        C912   1.413       .  A
C911       Br918   1.932       .  S
C912        C913   1.421       .  A
C912       Br917   1.937       .  S
C913        C914   1.418       .  A
C914       Br915   1.936       .  S
C919        C920   1.412       .  A
C919        C924   1.413       .  A
C919       Br926   1.937       .  S
C920        C921   1.413       .  A
C921        C922   1.415       .  A
C921       Br928   1.931       .  S
C922        C923   1.426       .  A
C922       Br927   1.939       .  S
C923        C924   1.426       .  A
C924       Br925   1.938       .  S
C929        C930   1.411       .  A
C929        C934   1.409       .  A
C929       Br936   1.928       .  S
C930        C931   1.410       .  A
C931        C932   1.408       .  A
C931       Br938   1.924       .  S
C932        C933   1.407       .  A
C932       Br937   1.927       .  S
C933        C934   1.414       .  A
C934       Br935   1.932       .  S
C939        C940   1.410       .  A
C939        C944   1.409       .  A
C939       Br946   1.927       .  S
C940        C941   1.411       .  A
C941        C942   1.410       .  A
C941       Br948   1.923       .  S
C942        C943   1.414       .  A
C942       Br947   1.933       .  S
C943        C944   1.410       .  A
C944       Br945   1.923       .  S
C949        C950   1.408       .  A
C949        C954   1.408       .  A
C949       Br956   1.931       .  S
C950        C951   1.412       .  A
C951        C952   1.408       .  A
C951       Br958   1.932       .  S
C952        C953   1.410       .  A
C952       Br957   1.931       .  S
C953        C954   1.413       .  A
C954       Br955   1.927       .  S
C959        C960   1.407       .  A
C959        C964   1.407       .  A
C959       Br966   1.929       .  S
C960        C961   1.411       .  A
C961        C962   1.408       .  A
C961       Br968   1.927       .  S
C962        C963   1.408       .  A
C962       Br967   1.929       .  S
C963        C964   1.410       .  A
C964       Br965   1.925       .  S
C969        C970   1.415   1_556  A
C969        C974   1.415       .  A
C969       Br976   1.933       .  S
C970        C971   1.418       .  A
C971        C972   1.414       .  A
C971       Br978   1.934       .  S
C972        C973   1.422       .  A
C972       Br977   1.938       .  S
C973        C974   1.419   1_554  A
C974       Br975   1.933       .  S
C979        C980   1.411   1_554  A
C979        C984   1.414       .  A
C979       Br986   1.935       .  S
C980        C981   1.416       .  A
C981        C982   1.418       .  A
C981       Br988   1.936       .  S
C982        C983   1.428       .  A
C982       Br987   1.937       .  S
C983        C984   1.425   1_556  A
C984       Br985   1.937       .  S
C989        C990   1.411       .  A
C989        C994   1.400       .  A
C989       Br996   1.937       .  S
C990        C991   1.411   1_556  A
C991        C992   1.416       .  A
C991       Br998   1.926       .  S
C992        C993   1.413   1_554  A
C992       Br997   1.927       .  S
C993        C994   1.415       .  A
C994       Br995   1.937       .  S
C999       C1000   1.411   1_556  A
C999       C1004   1.409       .  A
C999      Br1006   1.930       .  S
C1000      C1001   1.411       .  A
C1001      C1002   1.410       .  A
C1001     Br1008   1.927       .  S
C1002      C1003   1.413       .  A
C1002     Br1007   1.930       .  S
C1003      C1004   1.417   1_554  A
C1004     Br1005   1.926       .  S
O1009     Ni1015   1.934       .  S
O1009      C1030   1.271       .  A
O1010     Ni1033   1.900       .  S
O1010      C1019   1.265       .  A
O1011     Ni1015   1.917       .  S
O1011     Ni1033   1.910   1_556  S
O1011     Ni1027   1.920       .  S
O1011      H1034   0.966       .  S
C1012      O1029   1.272       .  A
C1012      O1021   1.276   1_556  A
C1012      C1316   1.507       .  S
O1013     Ni1032   1.935       .  S
O1013      C1019   1.272       .  A
O1014     Ni1032   1.905       .  S
O1014      C1016   1.269       .  A
Ni1015     O1018   1.934       .  S
Ni1015     O1020   1.895       .  S
C1016      O1026   1.274   1_554  A
C1016      C1336   1.488       .  S
O1017     Ni1033   1.922       .  S
O1017      C1023   1.272       .  A
O1018      C1023   1.275   1_556  A
C1019      C1296   1.474       .  S
O1020      C1022   1.268       .  A
O1021     Ni1032   1.935       .  S
C1022      O1028   1.277   1_556  A
C1022      C1326   1.481       .  S
C1023      C1306   1.505       .  S
H1024      O1025   0.967       .  S
O1025     Ni1033   1.922       .  S
O1025     Ni1027   1.911   1_554  S
O1025     Ni1032   1.927       .  S
O1026     Ni1027   1.935       .  S
Ni1027     O1031   1.900       .  S
Ni1027     O1029   1.923       .  S
O1028     Ni1033   1.948       .  S
C1030      O1031   1.264       .  A
C1030      C1286   1.478       .  S
O1035     Ni1041   1.931       .  S
O1035      C1056   1.271       .  A
O1036     Ni1059   1.902       .  S
O1036      C1045   1.266       .  A
O1037     Ni1041   1.924       .  S
O1037     Ni1059   1.911       .  S
O1037     Ni1053   1.920       .  S
O1037      H1060   0.966       .  S
C1038      O1055   1.269       .  A
C1038      O1047   1.273       .  A
C1038      C1256   1.498       .  S
O1039     Ni1058   1.930       .  S
O1039      C1045   1.270       .  A
O1040     Ni1058   1.899       .  S
O1040      C1042   1.270       .  A
Ni1041     O1044   1.939       .  S
Ni1041     O1046   1.903       .  S
C1042      O1052   1.280       .  A
C1042      C1276   1.487       .  S
O1043     Ni1059   1.914       .  S
O1043      C1049   1.269       .  A
O1044      C1049   1.274       .  A
C1045      C1289   1.480       .  S
O1046      C1048   1.269       .  A
O1047     Ni1058   1.934       .  S
C1048      O1054   1.276       .  A
C1048      C1266   1.483       .  S
C1049      C1246   1.495       .  S
H1050      O1051   0.966       .  S
O1051     Ni1059   1.922       .  S
O1051     Ni1053   1.916       .  S
O1051     Ni1058   1.924       .  S
O1052     Ni1053   1.954       .  S
Ni1053     O1057   1.905       .  S
Ni1053     O1055   1.920       .  S
O1054     Ni1059   1.950       .  S
C1056      O1057   1.267       .  A
C1056      C1299   1.475       .  S
O1061     Ni1067   1.939       .  S
O1061      C1082   1.273       .  A
O1062     Ni1085   1.909       .  S
O1063     Ni1067   1.919       .  S
O1063     Ni1085   1.905   1_554  S
O1063      H1086   0.966   1_655  S
C1064      O1081   1.274   1_556  A
C1064      O1073   1.273       .  A
C1064      C1226   1.489   1_556  S
O1065     Ni1084   1.926       .  S
O1065      C1071   1.268       .  A
O1066     Ni1084   1.898       .  S
O1066      C1068   1.268       .  A
Ni1067     O1070   1.932       .  S
Ni1067     O1072   1.910       .  S
C1068      O1078   1.277   1_556  A
C1068      C1329   1.485       .  S
O1069     Ni1085   1.926       .  S
O1069      C1075   1.276   1_556  A
O1070      C1075   1.276       .  A
C1071      C1206   1.474       .  S
O1072      C1074   1.270       .  A
O1073     Ni1084   1.927       .  S
C1074      O1080   1.272   1_554  A
C1074      C1339   1.495       .  S
C1075      C1239   1.502   1_554  S
H1076      O1077   0.966       .  S
O1077     Ni1079   1.919   1_556  S
O1077     Ni1084   1.919       .  S
O1078     Ni1079   1.942       .  S
Ni1079     O1083   1.912       .  S
Ni1079     O1081   1.921       .  S
O1080     Ni1085   1.935       .  S
C1082      C1219   1.482       .  S
O1087     Ni1093   1.925       .  S
O1087      C1108   1.270       .  A
O1088     Ni1111   1.920       .  S
O1089     Ni1093   1.902       .  S
O1089     Ni1111   1.910       .  S
O1089      H1112   0.966       .  S
C1090      O1107   1.278       .  A
C1090      O1099   1.277       .  A
C1090      C1186   1.480       .  S
O1091     Ni1110   1.932       .  S
O1091      C1097   1.271       .  A
O1092     Ni1110   1.912       .  S
O1092      C1094   1.271       .  A
Ni1093     O1096   1.915       .  S
Ni1093     O1098   1.912       .  S
C1094      O1104   1.271       .  A
C1094      C1269   1.481       .  S
O1095     Ni1111   1.914       .  S
O1095      C1101   1.276       .  A
O1096      C1101   1.275       .  A
C1097      C1216   1.488       .  S
O1098      C1100   1.271       .  A
O1099     Ni1110   1.922       .  S
C1100      O1106   1.273       .  A
C1100      C1279   1.484       .  S
C1101      C1196   1.478       .  S
H1102      O1103   0.966       .  S
O1103     Ni1105   1.906       .  S
O1103     Ni1110   1.901       .  S
O1104     Ni1105   1.927       .  S
Ni1105     O1109   1.919       .  S
Ni1105     O1107   1.920       .  S
O1106     Ni1111   1.931       .  S
C1108      C1209   1.486       .  S
O1113     Ni1119   1.925       .  S
O1113      C1134   1.269       .  A
O1114     Ni1137   1.924       .  S
O1115     Ni1119   1.909       .  S
O1115     Ni1137   1.913   1_556  S
O1115      H1138   0.966       .  S
C1116      O1133   1.276   1_554  A
C1116      O1125   1.280       .  A
C1116      C1229   1.491       .  S
O1117     Ni1136   1.930       .  S
O1117      C1123   1.270   1_565  A
O1118     Ni1136   1.916       .  S
O1118      C1120   1.268       .  A
Ni1119     O1122   1.919       .  S
Ni1119     O1124   1.923       .  S
C1120      O1130   1.273   1_554  A
C1120      C1309   1.511       .  S
O1121     Ni1137   1.938       .  S
O1121      C1127   1.283   1_554  A
O1122      C1127   1.274       .  A
C1123      C1176   1.495       .  S
O1124      C1126   1.270       .  A
O1125     Ni1136   1.937       .  S
C1126      O1132   1.271   1_556  A
C1126      C1319   1.516       .  S
C1127      C1236   1.504       .  S
H1128      O1129   0.966       .  S
O1129     Ni1131   1.907   1_554  S
O1129     Ni1136   1.911       .  S
O1130     Ni1131   1.937       .  S
Ni1131     O1135   1.910       .  S
Ni1131     O1133   1.921       .  S
O1132     Ni1137   1.929       .  S
C1134      C1169   1.478       .  S
O1139     Ni1145   1.933       .  S
O1139      C1160   1.271       .  A
O1140     Ni1163   1.898       .  S
O1141     Ni1145   1.911       .  S
O1141     Ni1163   1.896       .  S
O1141      H1164   0.966       .  S
C1142      O1159   1.271       .  A
C1142      O1151   1.277       .  A
C1142      C1189   1.471       .  S
O1143     Ni1162   1.940       .  S
O1143      C1149   1.274       .  A
O1144     Ni1162   1.912       .  S
O1144      C1146   1.267       .  A
Ni1145     O1148   1.920       .  S
Ni1145     O1150   1.914       .  S
C1146      O1156   1.273       .  A
C1146      C1249   1.504       .  S
O1147     Ni1163   1.910       .  S
O1147      C1153   1.273       .  A
O1148      C1153   1.275       .  A
C1149      C1166   1.479       .  S
O1150      C1152   1.269       .  A
O1151     Ni1162   1.941       .  S
C1152      O1158   1.271       .  A
C1152      C1259   1.515       .  S
C1153      C1199   1.473       .  S
H1154      O1155   0.966       .  S
O1155     Ni1157   1.910       .  S
O1155     Ni1162   1.911       .  S
O1156     Ni1157   1.938       .  S
Ni1157     O1161   1.908       .  S
Ni1157     O1159   1.903       .  S
O1158     Ni1163   1.931       .  S
C1160      C1179   1.490       .  S
C1165      C1166   1.411       .  A
C1165      C1170   1.408       .  A
C1165     Br1172   1.931       .  S
C1167      C1168   1.409       .  A
C1167     Br1174   1.930       .  S
C1168      C1169   1.411       .  A
C1168     Br1173   1.932       .  S
C1170     Br1171   1.927       .  S
C1175      C1180   1.413       .  A
C1175     Br1182   1.930       .  S
C1176      C1177   1.419   1_545  A
C1177      C1178   1.410       .  A
C1177     Br1184   1.935       .  S
C1178     Br1183   1.935       .  S
C1179      C1180   1.416       .  A
C1180     Br1181   1.935       .  S
C1185      C1186   1.413       .  A
C1185      C1190   1.410       .  A
C1185     Br1192   1.930       .  S
C1186      C1187   1.417       .  A
C1187      C1188   1.404       .  A
C1187     Br1194   1.936       .  S
C1188      C1189   1.405       .  A
C1188     Br1193   1.931       .  S
C1189      C1190   1.407       .  A
C1190     Br1191   1.929       .  S
C1195      C1196   1.417       .  A
C1195      C1200   1.402       .  A
C1195     Br1202   1.940       .  S
C1196      C1197   1.413       .  A
C1197      C1198   1.408       .  A
C1197     Br1204   1.932       .  S
C1198      C1199   1.409       .  A
C1198     Br1203   1.930       .  S
C1199      C1200   1.411       .  A
C1200     Br1201   1.936       .  S
C1205      C1210   1.408       .  A
C1205     Br1212   1.931       .  S
C1206      C1207   1.409       .  A
C1207      C1208   1.410       .  A
C1207     Br1214   1.931       .  S
C1208     Br1213   1.931       .  S
C1209      C1210   1.415       .  A
C1210     Br1211   1.926       .  S
C1215      C1220   1.409       .  A
C1215     Br1222   1.931       .  S
C1216      C1217   1.415       .  A
C1217      C1218   1.414       .  A
C1217     Br1224   1.929       .  S
C1218     Br1223   1.930       .  S
C1219      C1220   1.407       .  A
C1220     Br1221   1.928       .  S
C1225      C1226   1.414   1_556  A
C1225      C1230   1.416       .  A
C1225     Br1232   1.928       .  S
C1226      C1227   1.414       .  A
C1227      C1228   1.406       .  A
C1227     Br1234   1.934       .  S
C1228      C1229   1.411       .  A
C1228     Br1233   1.929       .  S
C1229      C1230   1.414   1_554  A
C1230     Br1231   1.929       .  S
C1235      C1236   1.425       .  A
C1235      C1240   1.411       .  A
C1235     Br1242   1.937       .  S
C1236      C1237   1.414   1_556  A
C1237      C1238   1.414       .  A
C1237     Br1244   1.933       .  S
C1238      C1239   1.418   1_554  A
C1238     Br1243   1.932       .  S
C1239      C1240   1.413       .  A
C1240     Br1241   1.934       .  S
C1245      C1246   1.413       .  A
C1245      C1250   1.411       .  A
C1245     Br1252   1.933       .  S
C1246      C1247   1.415       .  A
C1247      C1248   1.412       .  A
C1247     Br1254   1.932       .  S
C1248      C1249   1.421       .  A
C1248     Br1253   1.937       .  S
C1249      C1250   1.419       .  A
C1250     Br1251   1.936       .  S
C1255      C1256   1.411       .  A
C1255      C1260   1.413       .  A
C1255     Br1262   1.937       .  S
C1256      C1257   1.413       .  A
C1257      C1258   1.415       .  A
C1257     Br1264   1.932       .  S
C1258      C1259   1.427       .  A
C1258     Br1263   1.939       .  S
C1259      C1260   1.426       .  A
C1260     Br1261   1.938       .  S
C1265      C1266   1.411       .  A
C1265      C1270   1.409       .  A
C1265     Br1272   1.927       .  S
C1266      C1267   1.410       .  A
C1267      C1268   1.408       .  A
C1267     Br1274   1.925       .  S
C1268      C1269   1.408       .  A
C1268     Br1273   1.927       .  S
C1269      C1270   1.414       .  A
C1270     Br1271   1.932       .  S
C1275      C1276   1.410       .  A
C1275      C1280   1.409       .  A
C1275     Br1282   1.927       .  S
C1276      C1277   1.411       .  A
C1277      C1278   1.409       .  A
C1277     Br1284   1.922       .  S
C1278      C1279   1.413       .  A
C1278     Br1283   1.933       .  S
C1279      C1280   1.409       .  A
C1280     Br1281   1.924       .  S
C1285      C1286   1.409       .  A
C1285      C1290   1.408       .  A
C1285     Br1292   1.931       .  S
C1286      C1287   1.412       .  A
C1287      C1288   1.408       .  A
C1287     Br1294   1.932       .  S
C1288      C1289   1.410       .  A
C1288     Br1293   1.932       .  S
C1289      C1290   1.413       .  A
C1290     Br1291   1.927       .  S
C1295      C1296   1.407       .  A
C1295      C1300   1.408       .  A
C1295     Br1302   1.929       .  S
C1296      C1297   1.411       .  A
C1297      C1298   1.408       .  A
C1297     Br1304   1.928       .  S
C1298      C1299   1.408       .  A
C1298     Br1303   1.929       .  S
C1299      C1300   1.410       .  A
C1300     Br1301   1.926       .  S
C1305      C1306   1.416   1_556  A
C1305      C1310   1.415       .  A
C1305     Br1312   1.933       .  S
C1306      C1307   1.419       .  A
C1307      C1308   1.414       .  A
C1307     Br1314   1.934       .  S
C1308      C1309   1.422       .  A
C1308     Br1313   1.938       .  S
C1309      C1310   1.419   1_554  A
C1310     Br1311   1.934       .  S
C1315      C1316   1.412   1_554  A
C1315      C1320   1.414       .  A
C1315     Br1322   1.935       .  S
C1316      C1317   1.416       .  A
C1317      C1318   1.418       .  A
C1317     Br1324   1.936       .  S
C1318      C1319   1.428       .  A
C1318     Br1323   1.937       .  S
C1319      C1320   1.425   1_556  A
C1320     Br1321   1.937       .  S
C1325      C1326   1.411       .  A
C1325      C1330   1.401       .  A
C1325     Br1332   1.937       .  S
C1326      C1327   1.411   1_556  A
C1327      C1328   1.416       .  A
C1327     Br1334   1.926       .  S
C1328      C1329   1.414   1_554  A
C1328     Br1333   1.927       .  S
C1329      C1330   1.416       .  A
C1330     Br1331   1.938       .  S
C1335      C1336   1.412   1_556  A
C1335      C1340   1.408       .  A
C1335     Br1342   1.930       .  S
C1336      C1337   1.412       .  A
C1337      C1338   1.411       .  A
C1337     Br1344   1.928       .  S
C1338      C1339   1.414       .  A
C1338     Br1343   1.929       .  S
C1339      C1340   1.417   1_554  A
C1340     Br1341   1.927       .  S
