geometry optimzed in LAMMPS
_audit_creation_date              2020-11-30 
_audit_creation_method            'lammps2cif' 
_symmetry_space_group_name_H-M    'P1' 
_symmetry_Int_Tables_number       1 
_symmetry_cell_setting            triclinic 
loop_ 
_symmetry_equiv_pos_as_xyz 
  x,y,z 
_cell_length_a                    35.72981911077261 
_cell_length_b                    37.21397006257886 
_cell_length_c                    35.995902059137954 
_cell_angle_alpha                 90.20926082094749 
_cell_angle_beta                  90.91176297232775 
_cell_angle_gamma                 118.35232835135861 
loop_ 
_atom_site_label 
_atom_site_type_symbol 
_atom_site_fract_x 
_atom_site_fract_y 
_atom_site_fract_z 
_atom_site_charge 
O1          O  0.30474410  0.46915368  0.94959217    -0.80620
O2          O  0.16191416  0.99312317  0.99601916    -0.65310
O3          O  0.27405659  0.01684376  0.97598207    -1.11910
C4          C  0.25907128  0.44321992  0.08935915     1.06270
O5          O  0.18940451  0.02020417  0.05069605    -0.78520
O6          O  0.26085496  0.02798512  0.09164176    -0.66100
Ni7        Ni  0.28793282  0.00679322  0.92771270     1.34870
C8          C  0.29839683  0.04087949  0.07995320     0.85000
O9          O  0.21567580  0.03432996  0.94179750    -0.79060
O10         O  0.27062971  0.04424661  0.90543281    -0.89330
C11         C  0.15807804  0.00618203  0.02730572     0.84580
O12         O  0.23416351  0.46486929  0.90780766    -0.67530
O13         O  0.22677094  0.44832924  0.09658235    -0.86820
C14         C  0.19731150  0.45194596  0.92107129     0.85410
C15         C  0.23738841  0.04792770  0.91226091     1.06970
H16         H  0.20451728  0.44539869  0.02071713     0.38780
O17         O  0.22241858  0.47420634  0.02565646    -1.09480
O18         O  0.30550207  0.03474848  0.04668773    -0.66130
Ni19       Ni  0.27828153  0.48572990  0.01704804     1.26350
O20         O  0.19278901  0.45516422  0.95551935    -0.66360
O21         O  0.28007798  0.45534302  0.05926025    -0.78650
C22         C  0.33632599  0.48215308  0.97273520     0.84790
O23         O  0.33356583  0.49563573  0.00424278    -0.65830
Ni24       Ni  0.20784877  0.48417142  0.07333914     1.27450
Ni25       Ni  0.21789143  0.00458480  0.98427759     1.26060
H26         H  0.29188121  0.04560003  0.98123559     0.39330
O27         O  0.16556865  0.19510936  0.94520677    -0.80620
O28         O  0.32846099  0.32540236  0.00460998    -0.65310
O29         O  0.24325606  0.22170319  0.97425717    -1.11910
C30         C  0.18024400  0.23135825  0.08836121     1.06270
O31         O  0.32657395  0.29334846  0.05618088    -0.78520
O32         O  0.26288607  0.22484971  0.09162769    -0.66100
Ni33       Ni  0.22101617  0.21261962  0.92484378     1.34870
C34         C  0.23866440  0.18985154  0.07753217     0.85000
O35         O  0.32032663  0.27774544  0.94690745    -0.79060
O36         O  0.27719108  0.23266848  0.90334515    -0.89330
C37         C  0.34366591  0.32542970  0.03639511     0.84580
O38         O  0.22616098  0.26429319  0.91146299    -0.67530
O39         O  0.21641008  0.26127575  0.09820147    -0.86820
C40         C  0.25110017  0.29938367  0.92471801     0.85410
C41         C  0.31305129  0.26264451  0.91404839     1.06970
H42         H  0.23726552  0.28747500  0.02399111     0.38780
O43         O  0.24862891  0.26878681  0.02783525    -1.09480
O44         O  0.22732714  0.18569060  0.04338732    -0.66130
Ni45       Ni  0.20615532  0.21644047  0.01482774     1.26350
O46         O  0.26440583  0.30449306  0.95842202    -0.66360
O47         O  0.17249274  0.21393000  0.05626173    -0.78650
C48         C  0.14879570  0.16354092  0.96553846     0.84790
O49         O  0.16307178  0.16481187  0.99802309    -0.65830
Ni50       Ni  0.27168096  0.27790481  0.07692697     1.27450
Ni51       Ni  0.28565961  0.27411958  0.98751799     1.26060
H52         H  0.25471846  0.20313318  0.97820350     0.39330
O53         O  0.32199421  0.51065549  0.55883510    -0.80620
O54         O  0.16475766  0.50009897  0.49362666    -0.65310
O55         O  0.24253919  0.46695074  0.52925840    -1.11910
C56         C  0.31074679  0.02093767  0.41456984     1.06270
O57         O  0.16305275  0.46459376  0.44393246    -0.78520
O58         O  0.21954250  0.44289365  0.41381072    -0.66100
Ni59       Ni  0.26537766  0.48094341  0.57816680     1.34870
C60         C  0.24284187  0.42920585  0.42788874     0.85000
O61         O  0.16809081  0.46217555  0.55505777    -0.79060
O62         O  0.20888193  0.45344403  0.59893445    -0.89330
C63         C  0.14793862  0.48347954  0.46291616     0.84580
O64         O  0.26354840  0.03034498  0.58907540    -0.67530
O65         O  0.27568272  0.01931899  0.40302612    -0.86820
C66         C  0.24170080  0.04513378  0.57401378     0.85410
C67         C  0.17421934  0.45303285  0.58797481     1.06970
H68         H  0.25599572  0.03662444  0.47484131     0.38780
O69         O  0.24204506  0.00711916  0.47279474    -1.09480
O70         O  0.25710694  0.43801012  0.46138988    -0.66130
Ni71       Ni  0.28081230  0.98976231  0.48869484     1.26350
O72         O  0.22874516  0.03684921  0.54019696    -0.66360
O73         O  0.31713522  0.01295686  0.44778668    -0.78650
C74         C  0.33849812  0.49382939  0.53864710     0.84790
O75         O  0.32047098  0.47527846  0.50892012    -0.65830
Ni76       Ni  0.21923810  0.99303519  0.42395663     1.27450
Ni77       Ni  0.20394371  0.48473060  0.51361769     1.26060
H78         H  0.22864093  0.43759857  0.52700019     0.39330
O79         O  0.00388724  0.31290530  0.94193673    -0.80620
O80         O  0.49882864  0.16202557  0.00249991    -0.65310
O81         O  0.46588697  0.24095240  0.97812945    -1.11910
C82         C  0.06275449  0.31628847  0.07823773     1.06270
O83         O  0.48344668  0.17032963  0.06014792    -0.78520
O84         O  0.47819620  0.23485819  0.09542693    -0.66100
Ni85       Ni  0.46607263  0.25684485  0.92810766     1.34870
C86         C  0.45861693  0.25370457  0.08379234     0.85000
O87         O  0.44372733  0.16328521  0.95221997    -0.79060
O88         O  0.42846995  0.20113170  0.91201198    -0.89330
C89         C  0.49161091  0.15013621  0.03557822     0.84580
O90         O  0.01169957  0.25011346  0.90728510    -0.67530
O91         O  0.06109460  0.28253081  0.08848198    -0.86820
C92         C  0.03071647  0.23066892  0.91870921     0.85410
C93         C  0.42584201  0.16710553  0.92243828     1.06970
H94         H  0.05010652  0.25195136  0.01445891     0.38780
O95         O  0.02147823  0.24158464  0.02334148    -1.09480
O96         O  0.45994705  0.26401234  0.04990571    -0.66130
Ni97       Ni  0.00425615  0.28084383  0.01350267     1.26350
O98         O  0.02700125  0.21760692  0.95185683    -0.66360
O99         O  0.04325170  0.31931951  0.04925322    -0.78650
C100        C  0.99591992  0.33259878  0.96705604     0.84790
O101        O  0.98747283  0.31968329  0.99968463    -0.65830
Ni102      Ni  0.02236063  0.22647979  0.07343989     1.27450
Ni103      Ni  0.48270870  0.20142572  0.98819352     1.26060
H104        H  0.43714165  0.23068246  0.98668178     0.39330
O105        O  0.48262251  0.16859829  0.44349489    -0.80620
O106        O  0.47826362  0.31445069  0.50326684    -0.65310
O107        O  0.02021929  0.24407244  0.47401063    -1.11910
C108        C  0.45522875  0.17534542  0.58764298     1.06270
O109        O  0.51117905  0.31708541  0.55659174    -0.78520
O110        O  0.03343295  0.26319184  0.59101286    -0.66100
Ni111      Ni  0.01169501  0.22344613  0.42469646     1.34870
C112        C  0.05060139  0.24307639  0.57777593     0.85000
O113        O  0.02306056  0.31459241  0.44467379    -0.79060
O114        O  0.03884697  0.27823488  0.40350950    -0.89330
C115        C  0.49325146  0.33122487  0.53433862     0.84580
O116        O  0.45904723  0.22133120  0.41065059    -0.67530
O117        O  0.45315347  0.20778664  0.59695617    -0.86820
C118        C  0.44170773  0.24127060  0.42382538     0.85410
C119        C  0.03611351  0.31036390  0.41275206     1.06970
H120        H  0.44259334  0.22695478  0.52261743     0.38780
O121        O  0.47300699  0.24169081  0.52686555    -1.09480
O122        O  0.04665066  0.23334063  0.54345776    -0.66130
Ni123      Ni  0.49461330  0.20654258  0.51440474     1.26350
O124        O  0.44602687  0.25167315  0.45793532    -0.66360
O125        O  0.46896225  0.17110266  0.55601490    -0.78650
C126        C  0.49887034  0.15365293  0.46661721     0.84790
O127        O  0.51418916  0.17073105  0.49755103    -0.65830
Ni128      Ni  0.48152153  0.26251981  0.57601869     1.27450
Ni129      Ni  0.99827672  0.27910175  0.48643103     1.26060
H130        H  0.05063519  0.25882058  0.47839443     0.39330
C131        C  0.04399126  0.12255907  0.40314757     0.03400
C132        C  0.04012599  0.12582210  0.44169110    -0.12750
C133        C  0.50118292  0.11736776  0.45526392     0.00900
C134        C  0.46492068  0.08846188  0.43751890    -0.11280
C135        C  0.46541152  0.07794894  0.39998207     0.03390
C136        C  0.50583538  0.09638755  0.38231744    -0.10700
H137        H  0.06642993  0.14634740  0.45918684     0.08990
H138        H  0.43583579  0.08344691  0.45056378     0.06520
H139        H  0.50716331  0.09220158  0.35279336     0.06360
C140        C  0.27166302  0.39257892  0.33850372     0.03400
C141        C  0.24831688  0.40287110  0.36385814    -0.12750
C142        C  0.25872471  0.40740931  0.40236973     0.00900
C143        C  0.29173079  0.39965629  0.41462239    -0.11280
C144        C  0.31734987  0.39190482  0.38933677     0.03390
C145        C  0.30709346  0.38924554  0.35147462    -0.10700
H146        H  0.22312141  0.40864716  0.35335605     0.08990
H147        H  0.29770148  0.40090473  0.44418472     0.06520
H148        H  0.32699070  0.38488420  0.33155426     0.06360
C149        C  0.37490700  0.04642684  0.32670749     0.03400
C150        C  0.34032510  0.03374182  0.35047778    -0.12750
C151        C  0.34603507  0.03148520  0.38848957     0.00900
C152        C  0.38551653  0.03694451  0.40163873    -0.11280
C153        C  0.42249506  0.05626639  0.38007788     0.03390
C154        C  0.41641593  0.05960871  0.34167842    -0.10700
H155        H  0.30865019  0.02420904  0.33926936     0.08990
H156        H  0.38770966  0.02822810  0.42986095     0.06520
H157        H  0.44330865  0.07286038  0.32344336     0.06360
C158        C  0.39064090  0.34308364  0.40304492     0.03400
C159        C  0.36537448  0.35782124  0.38391232    -0.12750
C160        C  0.35324931  0.38465411  0.40275335     0.00900
C161        C  0.36840322  0.39578215  0.43958077    -0.11280
C162        C  0.37576127  0.36768745  0.45927747     0.03390
C163        C  0.40078402  0.35446728  0.44078415    -0.10700
H164        H  0.35274158  0.34589551  0.35649153     0.08990
H165        H  0.36208088  0.41693261  0.45544794     0.06520
H166        H  0.41930563  0.34419898  0.45735743     0.06360
C167        C  0.42351295  0.28475156  0.33468523     0.03400
C168        C  0.43105514  0.25953723  0.35922014    -0.12750
C169        C  0.42244328  0.25874883  0.39727506     0.00900
C170        C  0.40562202  0.28353730  0.41031615    -0.11280
C171        C  0.40124149  0.31189689  0.38690801     0.03390
C172        C  0.40929826  0.31140284  0.34890874    -0.10700
H173        H  0.44623307  0.24240154  0.34888277     0.08990
H174        H  0.39811505  0.28196013  0.43943263     0.06520
H175        H  0.40545494  0.33235918  0.33042316     0.06360
C176        C  0.07232416  0.37747287  0.32526874     0.03400
C177        C  0.06258341  0.34443503  0.34967906    -0.12750
C178        C  0.04668506  0.34430637  0.38533046     0.00900
C179        C  0.03931394  0.37713477  0.39500018    -0.11280
C180        C  0.05554866  0.41336764  0.37393035     0.03390
C181        C  0.06864264  0.41155669  0.33788680    -0.10700
H182        H  0.06695249  0.31887589  0.34075982     0.08990
H183        H  0.02345902  0.37565539  0.42073124     0.06520
H184        H  0.07728380  0.43728602  0.31983285     0.06360
C185        C  0.11479179  0.02973727  0.39279635     0.03400
C186        C  0.08599888  0.49244552  0.37421912    -0.12750
C187        C  0.07008882  0.45420350  0.39318300     0.00900
C188        C  0.08069819  0.45554769  0.43108985    -0.11280
C189        C  0.11472479  0.48979167  0.44589336     0.03390
C190        C  0.12892994  0.02680270  0.42873603    -0.10700
H191        H  0.07806971  0.49299508  0.34521765     0.08990
H192        H  0.07211329  0.42812469  0.44673499     0.06520
H193        H  0.15717090  0.05188948  0.44102054     0.06360
C194        C  0.11864158  0.20353853  0.33584301     0.03400
C195        C  0.08479029  0.16719448  0.34905181    -0.12750
C196        C  0.08428043  0.15521061  0.38601093     0.00900
C197        C  0.12059387  0.17966943  0.40859606    -0.11280
C198        C  0.15302396  0.21776822  0.39733580     0.03390
C199        C  0.15231853  0.22905657  0.36025882    -0.10700
H200        H  0.05887901  0.14856717  0.33019202     0.08990
H201        H  0.12465476  0.16893009  0.43527731     0.06520
H202        H  0.17821747  0.25707392  0.35014056     0.06360
C203        C  0.17599492  0.11590280  0.32342235     0.03400
C204        C  0.19976102  0.14792510  0.34877667    -0.12750
C205        C  0.19262628  0.14235613  0.38682276     0.00900
C206        C  0.15851109  0.10579953  0.39858879    -0.11280
C207        C  0.13820789  0.07116456  0.37503118     0.03390
C208        C  0.14648268  0.07695295  0.33680104    -0.10700
H209        H  0.22230748  0.17774826  0.33881198     0.08990
H210        H  0.14909934  0.10357825  0.42726185     0.06520
H211        H  0.13095365  0.05151344  0.31749410     0.06360
C212        C  0.27680636  0.39599234  0.17825648     0.03400
C213        C  0.30875691  0.38655784  0.16566418    -0.12750
C214        C  0.32504723  0.39703522  0.12960174     0.00900
C215        C  0.31120101  0.42015566  0.10824746    -0.11280
C216        C  0.27509959  0.42371901  0.11707090     0.03390
C217        C  0.25772219  0.41129141  0.15240995    -0.10700
H218        H  0.32148338  0.37215769  0.18425973     0.08990
H219        H  0.32811369  0.43468800  0.08342091     0.06520
H220        H  0.23052689  0.41485844  0.16014865     0.06360
C221        C  0.36239755  0.05309405  0.16833534     0.03400
C222        C  0.32850516  0.04899546  0.14503329    -0.12750
C223        C  0.33506622  0.05808573  0.10694985     0.00900
C224        C  0.37664048  0.07393110  0.09364478    -0.11280
C225        C  0.41058847  0.07677705  0.11657161     0.03390
C226        C  0.40288274  0.06692126  0.15384339    -0.10700
H227        H  0.29682111  0.03642804  0.15603381     0.08990
H228        H  0.38167944  0.08259521  0.06481392     0.06520
H229        H  0.42839476  0.06939704  0.17202720     0.06360
C230        C  0.40063331  0.35059351  0.11007540     0.03400
C231        C  0.40694695  0.36093870  0.07254752    -0.12750
C232        C  0.37441682  0.36354634  0.05393504     0.00900
C233        C  0.35415806  0.38189900  0.07237794    -0.11280
C234        C  0.35406751  0.38303148  0.11165897     0.03390
C235        C  0.37549401  0.36417674  0.13061473    -0.10700
H236        H  0.42809753  0.35450249  0.05601160     0.08990
H237        H  0.33024330  0.38530499  0.05622663     0.06520
H238        H  0.37081446  0.35832100  0.15993381     0.06360
C239        C  0.43477138  0.29057338  0.17530958     0.03400
C240        C  0.44267978  0.26587992  0.15000924    -0.12750
C241        C  0.43793797  0.26901896  0.11136363     0.00900
C242        C  0.42145751  0.29467881  0.09920488    -0.11280
C243        C  0.41433288  0.32055055  0.12408325     0.03390
C244        C  0.42029550  0.31722502  0.16195141    -0.10700
H245        H  0.45389987  0.24540201  0.16025687     0.08990
H246        H  0.41519113  0.29472343  0.06978915     0.06520
H247        H  0.41390406  0.33564512  0.18150194     0.06360
C248        C  0.09425271  0.38174956  0.16576423     0.03400
C249        C  0.08889844  0.35001136  0.14103303    -0.12750
C250        C  0.08419989  0.35339812  0.10265873     0.00900
C251        C  0.09176613  0.39126670  0.08853157    -0.11280
C252        C  0.09802094  0.42435131  0.11192467     0.03390
C253        C  0.09802607  0.41853064  0.15063797    -0.10700
H254        H  0.08695290  0.32201284  0.15128628     0.08990
H255        H  0.09200038  0.39388545  0.05872656     0.06520
H256        H  0.10017740  0.44238956  0.16918780     0.06360
C257        C  0.13603994  0.03980081  0.09530288     0.03400
C258        C  0.12259979  0.03657548  0.05805315    -0.12750
C259        C  0.11689939  0.50204200  0.03874344     0.00900
C260        C  0.09404857  0.46557246  0.05746678    -0.11280
C261        C  0.10442191  0.46423187  0.09537502     0.03390
C262        C  0.12676481  0.50272391  0.11431656    -0.10700
H263        H  0.12929049  0.06351839  0.04216224     0.08990
H264        H  0.07650779  0.43839835  0.04065816     0.06520
H265        H  0.13932074  0.50414603  0.14210078     0.06360
C266        C  0.11370490  0.20664771  0.17600429     0.03400
C267        C  0.14682817  0.22869953  0.15104196    -0.12750
C268        C  0.14536594  0.21272764  0.11540168     0.00900
C269        C  0.11096579  0.17482298  0.10584906    -0.11280
C270        C  0.07318267  0.15806047  0.12570109     0.03390
C271        C  0.07560021  0.17326300  0.16208610    -0.10700
H272        H  0.17436040  0.25676199  0.15986507     0.08990
H273        H  0.11366153  0.15867878  0.08198273     0.06520
H274        H  0.04897872  0.15824675  0.18027176     0.06360
C275        C  0.19011208  0.12703770  0.16429554     0.03400
C276        C  0.21745114  0.15946317  0.14152977    -0.12750
C277        C  0.21858433  0.15360812  0.10277222     0.00900
C278        C  0.19288493  0.11401523  0.08801554    -0.11280
C279        C  0.16539080  0.08121215  0.11085559     0.03390
C280        C  0.16524783  0.08825262  0.14872969    -0.10700
H281        H  0.23606969  0.18955921  0.15369506     0.08990
H282        H  0.19405434  0.10922804  0.05850663     0.06520
H283        H  0.14480592  0.06340626  0.16644210     0.06360
C284        C  0.03220162  0.12841731  0.10602325     0.03400
C285        C  0.03180003  0.12532094  0.06670987    -0.12750
C286        C  0.49422171  0.11385988  0.04707733     0.00900
C287        C  0.45742550  0.08536800  0.06327962    -0.11280
C288        C  0.45368896  0.08935677  0.10153793     0.03390
C289        C  0.49189508  0.11073751  0.12329588    -0.10700
H290        H  0.05973583  0.14306015  0.05065444     0.08990
H291        H  0.42978463  0.06916073  0.04532248     0.06520
H292        H  0.49003753  0.11588908  0.15248816     0.06360
O293        O  0.18175264  0.16892585  0.55676558    -0.80620
O294        O  0.33315100  0.31431011  0.50023275    -0.65310
O295        O  0.22046167  0.24506967  0.52748622    -1.11910
C296        C  0.21651061  0.17567902  0.41435186     1.06270
O297        O  0.30379159  0.31771358  0.44695336    -0.78520
O298        O  0.22659798  0.26396839  0.41081328    -0.66100
Ni299      Ni  0.20796227  0.22451822  0.57643454     1.34870
C300        C  0.18992120  0.24138652  0.42346485     0.85000
O301        O  0.28636792  0.31539764  0.55634393    -0.79060
O302        O  0.23536328  0.27974460  0.59769899    -0.89330
C303        C  0.33561040  0.33195951  0.46988451     0.84580
O304        O  0.25871358  0.22305347  0.59275351    -0.67530
O305        O  0.25044810  0.20787200  0.40487829    -0.86820
C306        C  0.29548616  0.24505105  0.58008164     0.85410
C307        C  0.26959322  0.31164613  0.58812054     1.06970
H308        H  0.28157362  0.22683855  0.47948650     0.38780
O309        O  0.26574539  0.24155080  0.47533416    -1.09480
O310        O  0.18526553  0.23469032  0.45809930    -0.66130
Ni311      Ni  0.20910355  0.20711524  0.48729200     1.26350
O312        O  0.30036791  0.25149488  0.54535140    -0.66360
O313        O  0.19987920  0.17119969  0.44630278    -0.78650
C314        C  0.15115297  0.15380205  0.53253529     0.84790
O315        O  0.15346368  0.17202252  0.50262037    -0.65830
Ni316      Ni  0.27769271  0.26264718  0.42652974     1.27450
Ni317      Ni  0.27719316  0.27939967  0.51561088     1.26060
H318        H  0.20481482  0.25990846  0.52308760     0.39330
C319        C  0.29412645  0.34557010  0.61512231     0.03400
C320        C  0.33207215  0.37895385  0.60371158    -0.12750
C321        C  0.35341603  0.41472476  0.62560833     0.00900
C322        C  0.34362153  0.41157570  0.66353590    -0.11280
C323        C  0.31108623  0.37465043  0.67755993     0.03390
C324        C  0.28390386  0.34353391  0.65261791    -0.10700
H325        H  0.34382845  0.37807842  0.57642170     0.08990
H326        H  0.36067197  0.43727122  0.68227648     0.06520
H327        H  0.25655058  0.31679223  0.66265425     0.06360
C328        C  0.36628971  0.28367726  0.66818473     0.03400
C329        C  0.33224864  0.25808712  0.64399803    -0.12750
C330        C  0.33235009  0.26830082  0.60632298     0.00900
C331        C  0.36590558  0.30527218  0.59430644    -0.11280
C332        C  0.40255186  0.32893784  0.61660375     0.03390
C333        C  0.40159106  0.31801029  0.65384299    -0.10700
H334        H  0.30569021  0.23088179  0.65456396     0.08990
H335        H  0.36312923  0.31562634  0.56697783     0.06520
H336        H  0.42849694  0.33588231  0.67204530     0.06360
C337        C  0.37875577  0.45497858  0.60637387     0.03400
C338        C  0.36770259  0.45641511  0.56888218    -0.12750
C339        C  0.37612886  0.49288513  0.55291648     0.00900
C340        C  0.40675066  0.02893137  0.56840107    -0.11280
C341        C  0.41810304  0.03070631  0.60613233     0.03390
C342        C  0.40454216  0.99293361  0.62513309    -0.10700
H343        H  0.34323472  0.42981800  0.55462676     0.08990
H344        H  0.41142766  0.05601852  0.55373258     0.06520
H345        H  0.41169907  0.99320278  0.65441618     0.06360
C346        C  0.41487289  0.10723588  0.67407379     0.03400
C347        C  0.42675048  0.14103477  0.65017898    -0.12750
C348        C  0.44286061  0.14092713  0.61465447     0.00900
C349        C  0.44869761  0.10733401  0.60470089    -0.11280
C350        C  0.43113532  0.07099714  0.62542525     0.03390
C351        C  0.41653415  0.07232906  0.66095475    -0.10700
H352        H  0.42396108  0.16736344  0.65943794     0.08990
H353        H  0.46424337  0.10819069  0.57890906     0.06520
H354        H  0.40613895  0.04599358  0.67851755     0.06360
C355        C  0.06958044  0.22495417  0.60424817     0.03400
C356        C  0.06298948  0.22557423  0.64269370    -0.12750
C357        C  0.06967954  0.19955557  0.66708233     0.00900
C358        C  0.08348685  0.17264825  0.65270043    -0.11280
C359        C  0.08882082  0.17023589  0.61447310     0.03390
C360        C  0.08415875  0.19840438  0.59091551    -0.10700
H361        H  0.05003957  0.24447535  0.65351344     0.08990
H362        H  0.08887440  0.15269228  0.67124104     0.06520
H363        H  0.08998895  0.19870923  0.56152042     0.06360
C364        C  0.09709395  0.13744027  0.59832193     0.03400
C365        C  0.08549279  0.12585272  0.56087757    -0.12750
C366        C  0.11213407  0.11583385  0.54102560     0.00900
C367        C  0.12131526  0.08775725  0.55865498    -0.11280
C368        C  0.13481256  0.09594339  0.59616695     0.03390
C369        C  0.12248312  0.12202615  0.61636907    -0.10700
H370        H  0.06571404  0.13550454  0.54537813     0.08990
H371        H  0.12833468  0.06814195  0.54125282     0.06520
H372        H  0.13517836  0.13300692  0.64395589     0.06360
C373        C  0.22584209  0.06764074  0.59865199     0.03400
C374        C  0.19392403  0.07664495  0.58545484    -0.12750
C375        C  0.16850204  0.08557118  0.61007269     0.00900
C376        C  0.17699894  0.08652645  0.64816224    -0.11280
C377        C  0.21192964  0.08283364  0.66192714     0.03390
C378        C  0.23550214  0.07218651  0.63725829    -0.10700
H379        H  0.18881787  0.07555604  0.55579583     0.08990
H380        H  0.15669235  0.09082001  0.66766006     0.06520
H381        H  0.26041158  0.06630767  0.64833446     0.06360
C382        C  0.10881885  0.42594136  0.67552900     0.03400
C383        C  0.06861814  0.41779258  0.66066849    -0.12750
C384        C  0.06407881  0.42437677  0.62274900     0.00900
C385        C  0.10172502  0.44292639  0.60205708    -0.11280
C386        C  0.13916162  0.44287639  0.61434728     0.03390
C387        C  0.14311740  0.43589500  0.65186671    -0.10700
H388        H  0.04150742  0.40605588  0.67868094     0.08990
H389        H  0.10121190  0.45497672  0.57489500     0.06520
H390        H  0.17336976  0.44034885  0.66307685     0.06360
C391        C  0.44337975  0.35946310  0.59899014     0.03400
C392        C  0.44759438  0.35291237  0.56118585    -0.12750
C393        C  0.48721803  0.36494474  0.54716757     0.00900
C394        C  0.02238692  0.39590223  0.56433469    -0.11280
C395        C  0.02161362  0.40523270  0.60213423     0.03390
C396        C  0.48113146  0.38683270  0.61953535    -0.10700
H397        H  0.42190121  0.32910372  0.54520777     0.08990
H398        H  0.05170793  0.40336922  0.55047652     0.06520
H399        H  0.47951513  0.39194907  0.64884421     0.06360
C400        C  0.46026969  0.36944687  0.89996362     0.03400
C401        C  0.46009180  0.36418775  0.93870158    -0.12750
C402        C  0.99686406  0.37061361  0.95693833     0.00900
C403        C  0.03540803  0.39863113  0.94325688    -0.11280
C404        C  0.03949476  0.40594277  0.90488680     0.03390
C405        C  0.00074970  0.39156465  0.88318732    -0.10700
H406        H  0.43149338  0.34379706  0.95293686     0.08990
H407        H  0.06193657  0.40427274  0.96128124     0.06520
H408        H  0.00143402  0.39532246  0.85357680     0.06360
C409        C  0.21496973  0.09055755  0.82266342     0.03400
C410        C  0.23589602  0.07721874  0.84852865    -0.12750
C411        C  0.22067329  0.06697435  0.88475329     0.00900
C412        C  0.18512601  0.07108624  0.89448267    -0.11280
C413        C  0.16963318  0.09255527  0.87268224     0.03390
C414        C  0.18369696  0.10070115  0.83577973    -0.10700
H415        H  0.26241753  0.07289581  0.84004855     0.08990
H416        H  0.16948307  0.05756547  0.92002411     0.06520
H417        H  0.16938057  0.11334120  0.81687215     0.06360
C418        C  0.15890870  0.43704979  0.89587030     0.03400
C419        C  0.16196653  0.43607829  0.85703907    -0.12750
C420        C  0.12683765  0.42920080  0.83416832     0.00900
C421        C  0.08748528  0.41905274  0.84980691    -0.11280
C422        C  0.08289201  0.41976950  0.88822396     0.03390
C423        C  0.12005774  0.43104930  0.91064413    -0.10700
H424        H  0.19195297  0.44281056  0.84468093     0.08990
H425        H  0.06091192  0.41132778  0.83100076     0.06520
H426        H  0.12020785  0.43682079  0.93987699     0.06360
C427        C  0.29635089  0.35935164  0.83628136     0.03400
C428        C  0.26921125  0.32774030  0.85980350    -0.12750
C429        C  0.27008858  0.33457423  0.89863218     0.00900
C430        C  0.29731240  0.37396086  0.91263057    -0.11280
C431        C  0.32560413  0.40536572  0.88928657     0.03390
C432        C  0.32455284  0.39753491  0.85141708    -0.10700
H433        H  0.24930479  0.29758376  0.84804768     0.08990
H434        H  0.29699425  0.37953816  0.94209428     0.06520
H435        H  0.34606404  0.42135841  0.83331148     0.06360
C436        C  0.38219158  0.29327045  0.82777748     0.03400
C437        C  0.41858557  0.32823619  0.84201016    -0.12750
C438        C  0.41949723  0.34201113  0.87866516     0.00900
C439        C  0.38124791  0.32291068  0.89814389    -0.11280
C440        C  0.34819529  0.28431168  0.88757175     0.03390
C441        C  0.34847117  0.26990555  0.85176798    -0.10700
H442        H  0.44545044  0.34490244  0.82442664     0.08990
H443        H  0.37802775  0.33726995  0.92317330     0.06520
H444        H  0.32165437  0.24178291  0.84188732     0.06360
C445        C  0.35616879  0.44635806  0.90439076     0.03400
C446        C  0.36546795  0.48305679  0.88512203    -0.12750
C447        C  0.38831677  0.02145916  0.90363652     0.00900
C448        C  0.39992147  0.02068687  0.94127325    -0.11280
C449        C  0.37676213  0.48481745  0.96066704     0.03390
C450        C  0.36981505  0.44972657  0.94164585    -0.10700
H451        H  0.35219656  0.48142402  0.85758925     0.08990
H452        H  0.41812315  0.04825204  0.95747875     0.06520
H453        H  0.36270084  0.42282532  0.95776709     0.06360
C454        C  0.40519923  0.13065101  0.89729126     0.03400
C455        C  0.40128973  0.13463921  0.85882914    -0.12750
C456        C  0.39618203  0.10310056  0.83390156     0.00900
C457        C  0.39308475  0.06655224  0.84866785    -0.11280
C458        C  0.39321232  0.06063572  0.88730339     0.03390
C459        C  0.39777795  0.09278190  0.91099597    -0.10700
H460        H  0.40360818  0.16282668  0.84858522     0.08990
H461        H  0.39130865  0.04300779  0.82987884     0.06520
H462        H  0.39660607  0.08938435  0.94076304     0.06360
C463        C  0.06051613  0.19991176  0.82694402     0.03400
C464        C  0.07447170  0.17263383  0.84007790    -0.12750
C465        C  0.07907710  0.16785661  0.87797510     0.00900
C466        C  0.07067929  0.19254536  0.90318668    -0.11280
C467        C  0.05372032  0.21786394  0.89133336     0.03390
C468        C  0.05052293  0.22269211  0.85278529    -0.10700
H469        H  0.08125325  0.15463914  0.82033174     0.08990
H470        H  0.07601110  0.19162791  0.93266773     0.06520
H471        H  0.03840473  0.24265824  0.84317794     0.06360
C472        C  0.14030444  0.10628456  0.89057205     0.03400
C473        C  0.14000759  0.10749418  0.92989568    -0.12750
C474        C  0.11874191  0.12491477  0.94821028     0.00900
C475        C  0.08585457  0.12656809  0.92919244    -0.11280
C476        C  0.09268848  0.13760247  0.89179259     0.03390
C477        C  0.11852799  0.12472790  0.87145392    -0.10700
H478        H  0.16435349  0.10506487  0.94625464     0.08990
H479        H  0.06386001  0.13199471  0.94550074     0.06520
H480        H  0.12352707  0.13094239  0.84221451     0.06360
C481        C  0.11619215  0.42741409  0.71602111     0.00110
C482        C  0.10984083  0.45587459  0.73677112    -0.11760
C483        C  0.11671314  0.45923095  0.77511539     0.02350
C484        C  0.12969592  0.43331858  0.79342120     0.00030
C485        C  0.13883793  0.40677966  0.77243949    -0.11700
C486        C  0.13203442  0.40350583  0.73386452     0.02180
H487        H  0.09942964  0.47553469  0.72290656     0.15220
H488        H  0.14941705  0.38735782  0.78638418     0.15220
C489        C  0.13963907  0.37419823  0.71348551     0.36870
C490        C  0.10956104  0.48905852  0.79521641     0.36770
N491        N  0.14584148  0.35082086  0.69706159    -0.43470
N492        N  0.10342110  0.01278063  0.81132563    -0.43470
C493        C  0.22170086  0.08892747  0.70268712     0.00110
C494        C  0.22497405  0.05863458  0.72324492    -0.11760
C495        C  0.22600581  0.05986577  0.76228759     0.02350
C496        C  0.22344241  0.09199337  0.78174977     0.00030
C497        C  0.22413485  0.12413032  0.76083437    -0.11700
C498        C  0.22318968  0.12282496  0.72192580     0.02240
H499        H  0.22434570  0.03269276  0.70882405     0.15220
H500        H  0.22390803  0.14984173  0.77490032     0.15220
C501        C  0.22162624  0.15574476  0.70212122     0.36870
C502        C  0.22803857  0.02664962  0.78099149     0.36770
N503        N  0.21913300  0.18091844  0.68523307    -0.43470
N504        N  0.23075931  0.00023872  0.79540152    -0.43470
C505        C  0.06079328  0.19948408  0.70751723     0.00110
C506        C  0.07570591  0.23686579  0.72693519    -0.11760
C507        C  0.07230920  0.23805825  0.76570747     0.02350
C508        C  0.05466254  0.20138056  0.78587994     0.00030
C509        C  0.03551959  0.16417630  0.76596445    -0.11700
C510        C  0.03844181  0.16282548  0.72741358     0.02240
H511        H  0.09152418  0.26531808  0.71201390     0.15220
H512        H  0.01957713  0.13569219  0.78090388     0.15220
C513        C  0.51890695  0.12313593  0.70948145     0.36870
C514        C  0.08749745  0.27714828  0.78397200     0.36770
N515        N  0.50392955  0.09112382  0.69554967    -0.43470
N516        N  0.09842557  0.30825745  0.79881769    -0.43470
C517        C  0.40342324  0.10869213  0.71364969     0.00110
C518        C  0.42909930  0.14351086  0.73518201    -0.11760
C519        C  0.42511081  0.14379912  0.77383160     0.02350
C520        C  0.39608951  0.10795065  0.79238486     0.00030
C521        C  0.36780609  0.07435456  0.77034393    -0.11700
C522        C  0.37059182  0.07469696  0.73149490     0.02240
H523        H  0.45368912  0.17031171  0.72197251     0.15220
H524        H  0.34352508  0.04738920  0.78358746     0.15220
C525        C  0.33901911  0.03984832  0.71076290     0.36870
C526        C  0.45114687  0.18177074  0.79294827     0.36770
N527        N  0.31375887  0.01184020  0.69423767    -0.43470
N528        N  0.47074745  0.21305972  0.80758248    -0.43470
C529        C  0.37670441  0.28343146  0.78726885     0.00110
C530        C  0.33800105  0.27583265  0.77009708    -0.11760
C531        C  0.33252163  0.27259092  0.73150484     0.02350
C532        C  0.36611724  0.27642871  0.70890208     0.00030
C533        C  0.40354301  0.28040715  0.72626182    -0.11700
C534        C  0.40932594  0.28441274  0.76494377     0.02240
H535        H  0.31263350  0.27513140  0.78677437     0.15220
H536        H  0.42935295  0.28253751  0.70933333     0.15220
C537        C  0.44947967  0.29075552  0.78061655     0.36870
C538        C  0.29323836  0.26876818  0.71639114     0.36770
N539        N  0.48202483  0.29668015  0.79302006    -0.43470
N540        N  0.26115608  0.26550583  0.70549466    -0.43470
C541        C  0.30659688  0.36762444  0.71816290     0.00110
C542        C  0.26657235  0.35370659  0.73429685    -0.11760
C543        C  0.26160813  0.34720190  0.77265042     0.02350
C544        C  0.29695041  0.35443439  0.79545759     0.00030
C545        C  0.33630000  0.36580579  0.77896634    -0.11700
C546        C  0.34146495  0.37254639  0.74080881     0.02240
H547        H  0.23943495  0.34912032  0.71708527     0.15220
H548        H  0.36359942  0.37111750  0.79634454     0.15220
C549        C  0.38291086  0.38436007  0.72576642     0.36870
C550        C  0.22073472  0.33574749  0.78841002     0.36770
N551        N  0.41626108  0.39407801  0.71395962    -0.43470
N552        N  0.18821645  0.32653461  0.80166318    -0.43470
C553        C  0.18112727  0.12345429  0.28286921     0.00110
C554        C  0.14451150  0.11204460  0.26075923    -0.11760
C555        C  0.14705494  0.11630205  0.22221872     0.02350
C556        C  0.18702383  0.13185407  0.20489105     0.00030
C557        C  0.22391832  0.14592747  0.22715942    -0.11700
C558        C  0.22134408  0.14209235  0.26585957     0.02240
H559        H  0.11365017  0.09923233  0.27366672     0.15220
H560        H  0.25466791  0.15797342  0.21417589     0.15220
C561        C  0.26038075  0.15620421  0.28718007     0.36870
C562        C  0.10784731  0.10285220  0.20110609     0.36770
N563        N  0.29156574  0.16829227  0.30461106    -0.43470
N564        N  0.07616865  0.09122575  0.18445579    -0.43470
C565        C  0.11986990  0.21286580  0.29562741     0.00110
C566        C  0.15598259  0.21957932  0.27581319    -0.11760
C567        C  0.15628188  0.22148575  0.23699918     0.02350
C568        C  0.11921316  0.21560166  0.21690464     0.00030
C569        C  0.08439124  0.21241663  0.23712486    -0.11700
C570        C  0.08443048  0.21108382  0.27602191     0.02240
H571        H  0.18340080  0.22113244  0.29062656     0.15220
H572        H  0.05635480  0.20956433  0.22244285     0.15220
C573        C  0.04736976  0.20708243  0.29506504     0.36870
C574        C  0.19480198  0.22795347  0.21914847     0.36770
N575        N  0.01759098  0.20364737  0.31031591    -0.43470
N576        N  0.22641016  0.23425756  0.20551428    -0.43470
C577        C  0.08483830  0.37639548  0.28596693     0.00110
C578        C  0.06150688  0.34081719  0.26463965    -0.11760
C579        C  0.06631237  0.34037701  0.22607604     0.02350
C580        C  0.09401471  0.37689418  0.20740038     0.00030
C581        C  0.12058286  0.41121243  0.22953090    -0.11700
C582        C  0.11677843  0.41111073  0.26824838     0.02240
H583        H  0.03789713  0.31344191  0.27789746     0.15220
H584        H  0.14429447  0.43865583  0.21647109     0.15220
C585        C  0.14644245  0.44701658  0.28899383     0.36870
C586        C  0.04208718  0.30157378  0.20746791     0.36770
N587        N  0.17010819  0.47586765  0.30554703    -0.43470
N588        N  0.52380800  0.26958328  0.19368289    -0.43470
C589        C  0.43263267  0.28513861  0.29435988     0.00110
C590        C  0.45592313  0.32280506  0.27689283    -0.11760
C591        C  0.46047308  0.32497304  0.23833331     0.02350
C592        C  0.44038821  0.28893207  0.21619460     0.00030
C593        C  0.42053191  0.25109978  0.23386005    -0.11700
C594        C  0.41703180  0.24893210  0.27259456     0.02240
H595        H  0.47021611  0.35074224  0.29341877     0.15220
H596        H  0.40580710  0.22320664  0.21729888     0.15220
C597        C  0.39629600  0.20915391  0.28905614     0.36870
C598        C  0.48580063  0.36464235  0.22219513     0.36770
N599        N  0.38089787  0.17745904  0.30279109    -0.43470
N600        N  0.50608741  0.39639929  0.20927716    -0.43470
C601        C  0.36719678  0.04517925  0.28615413     0.00110
C602        C  0.38052421  0.02258665  0.26395895    -0.11760
C603        C  0.37464380  0.02087764  0.22546570     0.02350
C604        C  0.35738778  0.04412340  0.20842738     0.00030
C605        C  0.34130017  0.06431177  0.23071905    -0.11700
C606        C  0.34492767  0.06399063  0.26940610     0.02240
H607        H  0.39522210  0.00593446  0.27681246     0.15220
H608        H  0.32705307  0.08136384  0.21788513     0.15220
C609        C  0.32519536  0.08277550  0.29111520     0.36870
C610        C  0.38689381  0.99536476  0.20401202     0.36770
N611        N  0.30812800  0.09629882  0.30892890    -0.43470
N612        N  0.39683344  0.97504570  0.18682624    -0.43470
C613        C  0.26536451  0.39128237  0.21865840     0.00110
C614        C  0.26281450  0.35735073  0.23784376    -0.11760
C615        C  0.26119828  0.35561578  0.27672286     0.02350
C616        C  0.26248212  0.38849814  0.29762725     0.00030
C617        C  0.26072520  0.42043962  0.27856881    -0.11700
C618        C  0.26164239  0.42192184  0.23957871     0.02240
H619        H  0.26343521  0.33252378  0.22248079     0.15220
H620        H  0.26097158  0.44552746  0.29422400     0.15220
C621        C  0.25976372  0.45598244  0.22245918     0.36870
C622        C  0.25967304  0.32025708  0.29461621     0.36770
N623        N  0.25677272  0.98278386  0.20917309    -0.43470
N624        N  0.25885641  0.29216879  0.30906051    -0.43470
O625        O  0.30470412  0.96912250  0.94959463    -0.80620
O626        O  0.16193826  0.49313770  0.99600241    -0.65310
O627        O  0.27408525  0.51686328  0.97598356    -1.11910
C628        C  0.25906898  0.94322403  0.08936682     1.06270
O629        O  0.18940621  0.52019830  0.05068975    -0.78520
O630        O  0.26085605  0.52797735  0.09164258    -0.66100
Ni631      Ni  0.28797684  0.50682914  0.92771472     1.34870
C632        C  0.29839932  0.54087679  0.07995492     0.85000
O633        O  0.21571788  0.53436462  0.94179747    -0.79060
O634        O  0.27067917  0.54428856  0.90543938    -0.89330
C635        C  0.15808528  0.50617465  0.02729371     0.84580
O636        O  0.23411428  0.96482846  0.90781818    -0.67530
O637        O  0.22677144  0.94833734  0.09659382    -0.86820
C638        C  0.19726588  0.95190518  0.92108966     0.85410
C639        C  0.23743813  0.54797068  0.91226582     1.06970
H640        H  0.20450216  0.94539110  0.02073583     0.38780
O641        O  0.22240410  0.97420016  0.02566762    -1.09480
O642        O  0.30550720  0.53475235  0.04668896    -0.66130
Ni643      Ni  0.27826449  0.98572116  0.01705083     1.26350
O644        O  0.19275549  0.95513350  0.95553866    -0.66360
O645        O  0.28006996  0.95534159  0.05926475    -0.78650
C646        C  0.33629257  0.98212690  0.97273090     0.84790
O647        O  0.33354393  0.99562176  0.00423589    -0.65830
Ni648      Ni  0.20784563  0.98417710  0.07334866     1.27450
Ni649      Ni  0.21791929  0.50460478  0.98427130     1.26060
H650        H  0.29190880  0.54561818  0.98124358     0.39330
O651        O  0.16551775  0.69507732  0.94521673    -0.80620
O652        O  0.32840306  0.82535425  0.00460009    -0.65310
O653        O  0.24320250  0.72165246  0.97425167    -1.11910
C654        C  0.18021772  0.73128612  0.08837458     1.06270
O655        O  0.32653817  0.79329804  0.05616361    -0.78520
O656        O  0.26286497  0.72478760  0.09161154    -0.66100
Ni657      Ni  0.22095554  0.71257147  0.92484156     1.34870
C658        C  0.23862893  0.68979082  0.07752000     0.85000
O659        O  0.32026073  0.77769925  0.94689344    -0.79060
O660        O  0.27712693  0.73261138  0.90333696    -0.89330
C661        C  0.34361693  0.82538233  0.03638124     0.84580
O662        O  0.22610703  0.76424572  0.91145745    -0.67530
O663        O  0.21638476  0.76120383  0.09821129    -0.86820
C664        C  0.25104363  0.79933412  0.92471652     0.85410
C665        C  0.31298626  0.76259145  0.91403716     1.06970
H666        H  0.23721692  0.78741774  0.02400192     0.38780
O667        O  0.24858222  0.76872946  0.02783754    -1.09480
O668        O  0.22728283  0.68563055  0.04337732    -0.66130
Ni669      Ni  0.20610674  0.71638371  0.01482826     1.26350
O670        O  0.26433505  0.80443843  0.95842475    -0.66360
O671        O  0.17245313  0.71386700  0.05627027    -0.78650
C672        C  0.14873993  0.66350016  0.96553676     0.84790
O673        O  0.16301752  0.66475752  0.99801885    -0.65830
Ni674      Ni  0.27164950  0.77784308  0.07692355     1.27450
Ni675      Ni  0.28560339  0.77406950  0.98751101     1.26060
H676        H  0.25466817  0.70308461  0.97819316     0.39330
O677        O  0.32199399  0.01065951  0.55883514    -0.80620
O678        O  0.16476007  0.00011996  0.49362403    -0.65310
O679        O  0.24253298  0.96696462  0.52926572    -1.11910
C680        C  0.31075069  0.52094009  0.41456713     1.06270
O681        O  0.16305086  0.96460852  0.44393288    -0.78520
O682        O  0.21953677  0.94290243  0.41381201    -0.66100
Ni683      Ni  0.26537752  0.98096744  0.57817238     1.34870
C684        C  0.24282942  0.92920919  0.42789392     0.85000
O685        O  0.16808940  0.96220528  0.55506325    -0.79060
O686        O  0.20888340  0.95348951  0.59894761    -0.89330
C687        C  0.14793885  0.98349722  0.46291497     0.84580
O688        O  0.26352832  0.53030839  0.58908530    -0.67530
O689        O  0.27568288  0.51931220  0.40302222    -0.86820
C690        C  0.24169066  0.54510678  0.57402158     0.85410
C691        C  0.17422071  0.95307653  0.58798519     1.06970
H692        H  0.25599099  0.53661485  0.47484135     0.38780
O693        O  0.24204600  0.50711029  0.47279318    -1.09480
O694        O  0.25708508  0.93800734  0.46139820    -0.66130
Ni695      Ni  0.28082026  0.48976135  0.48869134     1.26350
O696        O  0.22873876  0.53682698  0.54020317    -0.66360
O697        O  0.31714289  0.51296648  0.44778550    -0.78650
C698        C  0.33848750  0.99382183  0.53864913     0.84790
O699        O  0.32045478  0.97526958  0.50892436    -0.65830
Ni700      Ni  0.21923913  0.49302449  0.42395482     1.27450
Ni701      Ni  0.20394219  0.98474879  0.51362009     1.26060
H702        H  0.22863115  0.93761259  0.52701325     0.39330
O703        O  0.00397596  0.81301606  0.94195391    -0.80620
O704        O  0.49893111  0.66210843  0.00251412    -0.65310
O705        O  0.46600272  0.74104283  0.97813160    -1.11910
C706        C  0.06286440  0.81637568  0.07824396     1.06270
O707        O  0.48356658  0.67041664  0.06016885    -0.78520
O708        O  0.47832761  0.73495781  0.09544068    -0.66100
Ni709      Ni  0.46619795  0.75694376  0.92811055     1.34870
C710        C  0.45872860  0.75378342  0.08380045     0.85000
O711        O  0.44382638  0.66336578  0.95223966    -0.79060
O712        O  0.42862667  0.70122420  0.91199908    -0.89330
C713        C  0.49170403  0.65021253  0.03559022     0.84580
O714        O  0.01185566  0.75024869  0.90730639    -0.67530
O715        O  0.06122370  0.78262358  0.08847841    -0.86820
C716        C  0.03084156  0.73076930  0.91871656     0.85410
C717        C  0.42596941  0.66719082  0.92244235     1.06970
H718        H  0.05022127  0.75204205  0.01445531     0.38780
O719        O  0.02159535  0.74167414  0.02334318    -1.09480
O720        O  0.46004616  0.76407443  0.04991004    -0.66130
Ni721      Ni  0.00436299  0.78092934  0.01351194     1.26350
O722        O  0.02709792  0.71767115  0.95185335    -0.66360
O723        O  0.04334821  0.81940203  0.04926766    -0.78650
C724        C  0.99597934  0.83268243  0.96708095     0.84790
O725        O  0.98756239  0.81976093  0.99970979    -0.65830
Ni726      Ni  0.02248504  0.72657221  0.07344455     1.27450
Ni727      Ni  0.48281869  0.70151228  0.98820189     1.26060
H728        H  0.43725491  0.73077262  0.98667863     0.39330
O729        O  0.48263218  0.66861154  0.44348170    -0.80620
O730        O  0.47826911  0.81446369  0.50326751    -0.65310
O731        O  0.02022354  0.74408678  0.47400285    -1.11910
C732        C  0.45525101  0.67536600  0.58764260     1.06270
O733        O  0.51120137  0.81710241  0.55658272    -0.78520
O734        O  0.03345971  0.76321171  0.59099997    -0.66100
Ni735      Ni  0.01169697  0.72346258  0.42468733     1.34870
C736        C  0.05062465  0.74309365  0.57776181     0.85000
O737        O  0.02306059  0.81460833  0.44467221    -0.79060
O738        O  0.03884161  0.77825288  0.40350186    -0.89330
C739        C  0.49326466  0.83123917  0.53433720     0.84580
O740        O  0.45904433  0.72134145  0.41064775    -0.67530
O741        O  0.45318087  0.70780933  0.59695742    -0.86820
C742        C  0.44171005  0.74128571  0.42382242     0.85410
C743        C  0.03610910  0.81038141  0.41274844     1.06970
H744        H  0.44260390  0.72697080  0.52261982     0.38780
O745        O  0.47301822  0.74170613  0.52686353    -1.09480
O746        O  0.04666473  0.73335102  0.54344517    -0.66130
Ni747      Ni  0.49462216  0.70655741  0.51439844     1.26350
O748        O  0.44602971  0.75168676  0.45793316    -0.66360
O749        O  0.46897622  0.67111940  0.55601140    -0.78650
C750        C  0.49887436  0.65366516  0.46660913     0.84790
O751        O  0.51419460  0.67074544  0.49754160    -0.65830
Ni752      Ni  0.48154593  0.76253992  0.57601547     1.27450
Ni753      Ni  0.99828153  0.77911593  0.48642761     1.26060
H754        H  0.05063978  0.75883547  0.47838484     0.39330
C755        C  0.04398996  0.62253697  0.40316139     0.03400
C756        C  0.04011992  0.62581198  0.44170232    -0.12750
C757        C  0.50117675  0.61737235  0.45526528     0.00900
C758        C  0.46491366  0.58846885  0.43751959    -0.11280
C759        C  0.46540991  0.57794068  0.39998860     0.03390
C760        C  0.50583632  0.59636423  0.38232994    -0.10700
H761        H  0.06642440  0.64633811  0.45919745     0.08990
H762        H  0.43582692  0.58346507  0.45055444     0.06520
H763        H  0.50716792  0.59216691  0.35280817     0.06360
C764        C  0.27165953  0.89258716  0.33851102     0.03400
C765        C  0.24831011  0.90287650  0.36386420    -0.12750
C766        C  0.25871583  0.90741459  0.40237626     0.00900
C767        C  0.29172268  0.89966348  0.41463060    -0.11280
C768        C  0.31734449  0.89191427  0.38934605     0.03390
C769        C  0.30709099  0.88925696  0.35148352    -0.10700
H770        H  0.22311361  0.90865034  0.35336090     0.08990
H771        H  0.29769144  0.90091173  0.44419316     0.06520
H772        H  0.32699097  0.88489899  0.33156383     0.06360
C773        C  0.37491883  0.54643709  0.32670707     0.03400
C774        C  0.34033459  0.53375438  0.35047513    -0.12750
C775        C  0.34603956  0.53148889  0.38848707     0.00900
C776        C  0.38551761  0.53694000  0.40163740    -0.11280
C777        C  0.42249775  0.55626097  0.38007977     0.03390
C778        C  0.41642477  0.55961077  0.34168093    -0.10700
H779        H  0.30866210  0.52422946  0.33926470     0.08990
H780        H  0.38771031  0.52822358  0.42986005     0.06520
H781        H  0.44332039  0.57286270  0.32344890     0.06360
C782        C  0.39064365  0.84310040  0.40304870     0.03400
C783        C  0.36537529  0.85783715  0.38391820    -0.12750
C784        C  0.35324347  0.88466323  0.40276325     0.00900
C785        C  0.36839177  0.89578434  0.43959274    -0.11280
C786        C  0.37575348  0.86768917  0.45928434     0.03390
C787        C  0.40078307  0.85447865  0.44078916    -0.10700
H788        H  0.35274623  0.84591528  0.35649565     0.08990
H789        H  0.36206522  0.91692961  0.45546367     0.06520
H790        H  0.41930605  0.84421052  0.45736080     0.06360
C791        C  0.42353056  0.78478414  0.33468423     0.03400
C792        C  0.43106939  0.75956544  0.35921722    -0.12750
C793        C  0.42245123  0.75876986  0.39727177     0.00900
C794        C  0.40562682  0.78355507  0.41031409    -0.11280
C795        C  0.40124848  0.81191787  0.38690873     0.03390
C796        C  0.40931147  0.81143117  0.34891005    -0.10700
H797        H  0.44624960  0.74243208  0.34887923     0.08990
H798        H  0.39811499  0.78197252  0.43942978     0.06520
H799        H  0.40546974  0.83239031  0.33042697     0.06360
C800        C  0.07231262  0.87749797  0.32527096     0.03400
C801        C  0.06257625  0.84445931  0.34967864    -0.12750
C802        C  0.04667546  0.84432517  0.38532972     0.00900
C803        C  0.03930041  0.87715072  0.39500315    -0.11280
C804        C  0.05552882  0.91338390  0.37393390     0.03390
C805        C  0.06861900  0.91157495  0.33788898    -0.10700
H806        H  0.06695321  0.81890495  0.34075858     0.08990
H807        H  0.02344928  0.87567008  0.42073681     0.06520
H808        H  0.07725341  0.93730330  0.31983519     0.06360
C809        C  0.11480224  0.52972116  0.39279543     0.03400
C810        C  0.08598206  0.99246209  0.37422340    -0.12750
C811        C  0.07007483  0.95422011  0.39318753     0.00900
C812        C  0.08069510  0.95556417  0.43109170    -0.11280
C813        C  0.11472468  0.98980854  0.44589155     0.03390
C814        C  0.12893187  0.52678647  0.42873862    -0.10700
H815        H  0.07804616  0.99301231  0.34522375     0.08990
H816        H  0.07211299  0.92814086  0.44673564     0.06520
H817        H  0.15717006  0.55187284  0.44102695     0.06360
C818        C  0.11863250  0.70351151  0.33585474     0.03400
C819        C  0.08478649  0.66716523  0.34906445    -0.12750
C820        C  0.08427937  0.65518444  0.38602367     0.00900
C821        C  0.12059231  0.67964642  0.40860756    -0.11280
C822        C  0.15301908  0.71774614  0.39734475     0.03390
C823        C  0.15230906  0.72903330  0.36026850    -0.10700
H824        H  0.05887622  0.64853402  0.33020541     0.08990
H825        H  0.12465317  0.66890926  0.43529002     0.06520
H826        H  0.17820494  0.75705203  0.35014890     0.06360
C827        C  0.17599562  0.61588640  0.32341823     0.03400
C828        C  0.19976383  0.64791129  0.34877021    -0.12750
C829        C  0.19263532  0.64234346  0.38681760     0.00900
C830        C  0.15852527  0.60578466  0.39858692    -0.11280
C831        C  0.13822070  0.57114857  0.37503076     0.03390
C832        C  0.14649011  0.57693613  0.33680026    -0.10700
H833        H  0.22230506  0.67773519  0.33880327     0.08990
H834        H  0.14911567  0.60356482  0.42726037     0.06520
H835        H  0.13095979  0.55149583  0.31749440     0.06360
C836        C  0.27681448  0.89600282  0.17826374     0.03400
C837        C  0.30876170  0.88656398  0.16566889    -0.12750
C838        C  0.32504453  0.89703437  0.12960368     0.00900
C839        C  0.31119713  0.92015359  0.10824836    -0.11280
C840        C  0.27510105  0.92372464  0.11707704     0.03390
C841        C  0.25772892  0.91130139  0.15241805    -0.10700
H842        H  0.32148833  0.87216136  0.18426171     0.08990
H843        H  0.32810054  0.93467088  0.08341310     0.06520
H844        H  0.23053396  0.91486845  0.16015749     0.06360
C845        C  0.36240747  0.55308215  0.16832883     0.03400
C846        C  0.32851384  0.54899123  0.14503278    -0.12750
C847        C  0.33506993  0.55808133  0.10694964     0.00900
C848        C  0.37664167  0.57392509  0.09363913    -0.11280
C849        C  0.41059143  0.57676018  0.11655662     0.03390
C850        C  0.40288710  0.56689543  0.15382833    -0.10700
H851        H  0.29683250  0.53643186  0.15603757     0.08990
H852        H  0.38167417  0.58259852  0.06481089     0.06520
H853        H  0.42839609  0.56936023  0.17200878     0.06360
C854        C  0.40064053  0.85060426  0.11005712     0.03400
C855        C  0.40690827  0.86091568  0.07251948    -0.12750
C856        C  0.37435627  0.86350067  0.05392387     0.00900
C857        C  0.35409219  0.88184315  0.07237361    -0.11280
C858        C  0.35404988  0.88301710  0.11165363     0.03390
C859        C  0.37551123  0.86419407  0.13060602    -0.10700
H860        H  0.42805384  0.85448536  0.05597129     0.08990
H861        H  0.33015012  0.88522233  0.05623840     0.06520
H862        H  0.37086908  0.85837314  0.15993276     0.06360
C863        C  0.43484032  0.79063768  0.17530787     0.03400
C864        C  0.44277100  0.76595499  0.15001279    -0.12750
C865        C  0.43803596  0.76909045  0.11136619     0.00900
C866        C  0.42153497  0.79473159  0.09920020    -0.11280
C867        C  0.41438395  0.82059273  0.12407241     0.03390
C868        C  0.42034997  0.81727637  0.16194275    -0.10700
H869        H  0.45399769  0.74548444  0.16026581     0.08990
H870        H  0.41526691  0.79476264  0.06978390     0.06520
H871        H  0.41394239  0.83568707  0.18149090     0.06360
C872        C  0.09430954  0.88181406  0.16577805     0.03400
C873        C  0.08898366  0.85008799  0.14104401    -0.12750
C874        C  0.08429731  0.85348125  0.10266910     0.00900
C875        C  0.09184795  0.89134674  0.08854650    -0.11280
C876        C  0.09806976  0.92441666  0.11194394     0.03390
C877        C  0.09806608  0.91859019  0.15065587    -0.10700
H878        H  0.08704784  0.82209258  0.15129526     0.08990
H879        H  0.09209280  0.89397552  0.05874149     0.06520
H880        H  0.10019666  0.94244041  0.16920663     0.06360
C881        C  0.13600045  0.53974409  0.09529413     0.03400
C882        C  0.12256688  0.53652496  0.05804378    -0.12750
C883        C  0.11690483  0.00207797  0.03875982     0.00900
C884        C  0.09404687  0.96561890  0.05749642    -0.11280
C885        C  0.10444698  0.96428890  0.09539839     0.03390
C886        C  0.12680353  0.00278366  0.11433082    -0.10700
H887        H  0.12925173  0.56347040  0.04215899     0.08990
H888        H  0.07649138  0.93843654  0.04070027     0.06520
H889        H  0.13937080  0.00420822  0.14211105     0.06360
C890        C  0.11368979  0.70657802  0.17602073     0.03400
C891        C  0.14681038  0.72862919  0.15105682    -0.12750
C892        C  0.14535596  0.71264350  0.11542509     0.00900
C893        C  0.11097497  0.67472203  0.10588775    -0.11280
C894        C  0.07318493  0.65797143  0.12572728     0.03390
C895        C  0.07559006  0.67318518  0.16210563    -0.10700
H896        H  0.17433292  0.75670355  0.15987192     0.08990
H897        H  0.11367634  0.65856864  0.08202934     0.06520
H898        H  0.04896186  0.65817704  0.18028577     0.06360
C899        C  0.19006421  0.62698480  0.16428598     0.03400
C900        C  0.21740306  0.65940930  0.14151871    -0.12750
C901        C  0.21854317  0.65355040  0.10276282     0.00900
C902        C  0.19284671  0.61395651  0.08800865    -0.11280
C903        C  0.16534930  0.58115502  0.11084885     0.03390
C904        C  0.16520276  0.58819750  0.14872217    -0.10700
H905        H  0.23601759  0.68950728  0.15368185     0.08990
H906        H  0.19402173  0.60916703  0.05850087     0.06520
H907        H  0.14476275  0.56335058  0.16643481     0.06360
C908        C  0.03220808  0.62835882  0.10602928     0.03400
C909        C  0.03182378  0.62531221  0.06671413    -0.12750
C910        C  0.49426156  0.61390539  0.04707439     0.00900
C911        C  0.45744078  0.58542088  0.06325034    -0.11280
C912        C  0.45369405  0.58935011  0.10151715     0.03390
C913        C  0.49189665  0.61067856  0.12328997    -0.10700
H914        H  0.05977505  0.64305852  0.05067764     0.08990
H915        H  0.42980778  0.56925613  0.04527657     0.06520
H916        H  0.49003934  0.61579206  0.15248992     0.06360
O917        O  0.18176918  0.66890387  0.55675807    -0.80620
O918        O  0.33314619  0.81430410  0.50023211    -0.65310
O919        O  0.22046220  0.74504851  0.52748567    -1.11910
C920        C  0.21651780  0.67566865  0.41434590     1.06270
O921        O  0.30378867  0.81770638  0.44695073    -0.78520
O922        O  0.22659211  0.76395463  0.41081599    -0.66100
Ni923      Ni  0.20796668  0.72449316  0.57643235     1.34870
C924        C  0.18991759  0.74136852  0.42347010     0.85000
O925        O  0.28635863  0.81538054  0.55634433    -0.79060
O926        O  0.23535710  0.77971831  0.59769940    -0.89330
C927        C  0.33560496  0.83195473  0.46988501     0.84580
O928        O  0.25872398  0.72303858  0.59274751    -0.67530
O929        O  0.25045149  0.70786504  0.40487170    -0.86820
C930        C  0.29549467  0.74504378  0.58007546     0.85410
C931        C  0.26958256  0.81162476  0.58812099     1.06970
H932        H  0.28158171  0.72683278  0.47948146     0.38780
O933        O  0.26574925  0.74154101  0.47533069    -1.09480
O934        O  0.18526602  0.73467186  0.45810414    -0.66130
Ni935      Ni  0.20910912  0.70709786  0.48728971     1.26350
O936        O  0.30037458  0.75148788  0.54534560    -0.66360
O937        O  0.19988814  0.67118655  0.44629784    -0.78650
C938        C  0.15116319  0.65378038  0.53253410     0.84790
O939        O  0.15347083  0.67199836  0.50261835    -0.65830
Ni940      Ni  0.27769202  0.76263958  0.42652617     1.27450
Ni941      Ni  0.27719081  0.77938658  0.51560920     1.26060
H942        H  0.20481075  0.75988350  0.52308962     0.39330
C943        C  0.29410984  0.84554993  0.61512318     0.03400
C944        C  0.33205544  0.87893516  0.60371485    -0.12750
C945        C  0.35339463  0.91470590  0.62561209     0.00900
C946        C  0.34359658  0.91155637  0.66353897    -0.11280
C947        C  0.31106105  0.87462992  0.67756142     0.03390
C948        C  0.28388147  0.84351424  0.65261716    -0.10700
H949        H  0.34381441  0.87806266  0.57642532     0.08990
H950        H  0.36064475  0.93725219  0.68227980     0.06520
H951        H  0.25652561  0.81677326  0.66265044     0.06360
C952        C  0.36628607  0.78368091  0.66818054     0.03400
C953        C  0.33225197  0.75808682  0.64399107    -0.12750
C954        C  0.33235579  0.76830021  0.60631666     0.00900
C955        C  0.36590816  0.80527483  0.59430206    -0.11280
C956        C  0.40255087  0.82894489  0.61660270     0.03390
C957        C  0.40158661  0.81801814  0.65384272    -0.10700
H958        H  0.30569615  0.73087789  0.65455480     0.08990
H959        H  0.36313316  0.81562719  0.56697221     0.06520
H960        H  0.42848933  0.83589263  0.67204760     0.06360
C961        C  0.37873360  0.95495906  0.60637715     0.03400
C962        C  0.36767580  0.95639542  0.56888692    -0.12750
C963        C  0.37611281  0.99286686  0.55291806     0.00900
C964        C  0.40675758  0.52895218  0.56840280    -0.11280
C965        C  0.41811559  0.53072644  0.60613256     0.03390
C966        C  0.40455932  0.49295357  0.62513160    -0.10700
H967        H  0.34320000  0.92979951  0.55463584     0.08990
H968        H  0.41142545  0.55603850  0.55373782     0.06520
H969        H  0.41171667  0.49322282  0.65441454     0.06360
C970        C  0.41491035  0.60726501  0.67408025     0.03400
C971        C  0.42678555  0.64106228  0.65018370    -0.12750
C972        C  0.44288611  0.64094978  0.61465586     0.00900
C973        C  0.44871678  0.60735379  0.60470053    -0.11280
C974        C  0.43115447  0.57101808  0.62542638     0.03390
C975        C  0.41656234  0.57235397  0.66095914    -0.10700
H976        H  0.42400231  0.66739381  0.65944408     0.08990
H977        H  0.46425616  0.60820688  0.57890582     0.06520
H978        H  0.40616743  0.54601893  0.67852255     0.06360
C979        C  0.06961190  0.72497810  0.60423334     0.03400
C980        C  0.06303594  0.72561443  0.64267976    -0.12750
C981        C  0.06973231  0.69960467  0.66707404     0.00900
C982        C  0.08353291  0.67268979  0.65269728    -0.11280
C983        C  0.08885326  0.67026082  0.61446931     0.03390
C984        C  0.08418224  0.69842006  0.59090453    -0.10700
H985        H  0.05009125  0.74452100  0.65349682     0.08990
H986        H  0.08892462  0.65274023  0.67124292     0.06520
H987        H  0.09000001  0.69871225  0.56150801     0.06360
C988        C  0.09711983  0.63745663  0.59832606     0.03400
C989        C  0.08550950  0.62585631  0.56088509    -0.12750
C990        C  0.11213982  0.61582094  0.54103514     0.00900
C991        C  0.12131436  0.58774433  0.55867267    -0.11280
C992        C  0.13482368  0.59594426  0.59618089     0.03390
C993        C  0.12250715  0.62204123  0.61637658    -0.10700
H994        H  0.06573058  0.63550578  0.54538298     0.08990
H995        H  0.12832192  0.56811668  0.54127623     0.06520
H996        H  0.13520995  0.63302958  0.64396007     0.06360
C997        C  0.22584072  0.56762243  0.59865943     0.03400
C998        C  0.19392433  0.57663066  0.58546482    -0.12750
C999        C  0.16851251  0.58556934  0.61008462     0.00900
C1000       C  0.17701835  0.58653305  0.64817314    -0.11280
C1001       C  0.21194787  0.58283546  0.66193481     0.03390
C1002       C  0.23550943  0.57217589  0.63726444    -0.10700
H1003       H  0.18881132  0.57553546  0.55580639     0.08990
H1004       H  0.15671983  0.59083750  0.66767224     0.06520
H1005       H  0.26041813  0.56629479  0.64833861     0.06360
C1006       C  0.10882579  0.92602389  0.67554517     0.03400
C1007       C  0.06862058  0.91785394  0.66067862    -0.12750
C1008       C  0.06407772  0.92441729  0.62275472     0.00900
C1009       C  0.10172371  0.94296748  0.60206213    -0.11280
C1010       C  0.13916547  0.94293256  0.61435920     0.03390
C1011       C  0.14312635  0.93597528  0.65188448    -0.10700
H1012       H  0.04150888  0.90611682  0.67868998     0.08990
H1013       H  0.10120644  0.95500371  0.57489410     0.06520
H1014       H  0.17338252  0.94044380  0.66309839     0.06360
C1015       C  0.44337998  0.85947175  0.59899143     0.03400
C1016       C  0.44760004  0.85291583  0.56118969    -0.12750
C1017       C  0.48722584  0.86495260  0.54717486     0.00900
C1018       C  0.02239188  0.89591124  0.56434366    -0.11280
C1019       C  0.02161233  0.90525275  0.60213910     0.03390
C1020       C  0.48112794  0.88684923  0.61953749    -0.10700
H1021       H  0.42191015  0.82910306  0.54521212     0.08990
H1022       H  0.05171541  0.90337672  0.55049059     0.06520
H1023       H  0.47950668  0.89196938  0.64884491     0.06360
C1024       C  0.46020770  0.86938170  0.89996878     0.03400
C1025       C  0.46002210  0.86412756  0.93870759    -0.12750
C1026       C  0.99681380  0.87065487  0.95697070     0.00900
C1027       C  0.03532725  0.89875435  0.94330191    -0.11280
C1028       C  0.03943397  0.90595571  0.90491380     0.03390
C1029       C  0.00069031  0.89150303  0.88319755    -0.10700
H1030       H  0.43143340  0.84368834  0.95293028     0.08990
H1031       H  0.06184858  0.90458063  0.96140006     0.06520
H1032       H  0.00137523  0.89520258  0.85358160     0.06360
C1033       C  0.21502758  0.59060720  0.82267020     0.03400
C1034       C  0.23595536  0.57727188  0.84853678    -0.12750
C1035       C  0.22073179  0.56702822  0.88476112     0.00900
C1036       C  0.18518497  0.57114163  0.89448974    -0.11280
C1037       C  0.16968719  0.59260557  0.87268708     0.03390
C1038       C  0.18375276  0.60074899  0.83578410    -0.10700
H1039       H  0.26247411  0.57294467  0.84005593     0.08990
H1040       H  0.16953677  0.55760806  0.92002450     0.06520
H1041       H  0.16943089  0.61337846  0.81687100     0.06360
C1042       C  0.15885699  0.93701572  0.89589324     0.03400
C1043       C  0.16192641  0.93612830  0.85705897    -0.12750
C1044       C  0.12680973  0.92930575  0.83419656     0.00900
C1045       C  0.08746382  0.91917204  0.84984225    -0.11280
C1046       C  0.08284368  0.91977529  0.88826578     0.03390
C1047       C  0.11998933  0.93094089  0.91068778    -0.10700
H1048       H  0.19191434  0.94287698  0.84469517     0.08990
H1049       H  0.06091269  0.91153512  0.83103465     0.06520
H1050       H  0.12012832  0.93655824  0.93994530     0.06360
C1051       C  0.29631736  0.85929928  0.83628149     0.03400
C1052       C  0.26917353  0.82768887  0.85980267    -0.12750
C1053       C  0.27004388  0.83452414  0.89863115     0.00900
C1054       C  0.29726606  0.87391051  0.91263031    -0.11280
C1055       C  0.32555894  0.90531437  0.88928663     0.03390
C1056       C  0.32451516  0.89748241  0.85141839    -0.10700
H1057       H  0.24926772  0.79753241  0.84804649     0.08990
H1058       H  0.29694452  0.87948917  0.94209340     0.06520
H1059       H  0.34602816  0.92130652  0.83331419     0.06360
C1060       C  0.38213935  0.79321857  0.82777345     0.03400
C1061       C  0.41853142  0.82817996  0.84201115    -0.12750
C1062       C  0.41944059  0.84194614  0.87866740     0.00900
C1063       C  0.38118886  0.82285051  0.89814088    -0.11280
C1064       C  0.34813239  0.78425636  0.88756260     0.03390
C1065       C  0.34841204  0.76985316  0.85175819    -0.10700
H1066       H  0.44539486  0.84485116  0.82442843     0.08990
H1067       H  0.37797269  0.83720913  0.92317280     0.06520
H1068       H  0.32159435  0.74173383  0.84187299     0.06360
C1069       C  0.35611664  0.94630894  0.90438756     0.03400
C1070       C  0.36540804  0.98300172  0.88511245    -0.12750
C1071       C  0.38837664  0.52151140  0.90365394     0.00900
C1072       C  0.39996474  0.52072757  0.94129390    -0.11280
C1073       C  0.37672287  0.98478324  0.96065641     0.03390
C1074       C  0.36976614  0.94968519  0.94164241    -0.10700
H1075       H  0.35212979  0.98136295  0.85758138     0.08990
H1076       H  0.41816488  0.54828581  0.95750807     0.06520
H1077       H  0.36265103  0.92278711  0.95776892     0.06360
C1078       C  0.40532131  0.63072962  0.89730051     0.03400
C1079       C  0.40139726  0.63470881  0.85883900    -0.12750
C1080       C  0.39626911  0.60316052  0.83391466     0.00900
C1081       C  0.39316070  0.56660937  0.84868413    -0.11280
C1082       C  0.39329666  0.56069817  0.88732020     0.03390
C1083       C  0.39789254  0.59285875  0.91100995    -0.10700
H1084       H  0.40371787  0.66289613  0.84859245     0.08990
H1085       H  0.39136817  0.54305765  0.82989602     0.06520
H1086       H  0.39673219  0.58946966  0.94077740     0.06360
C1087       C  0.06061997  0.70001554  0.82693586     0.03400
C1088       C  0.07457186  0.67273220  0.84006196    -0.12750
C1089       C  0.07916863  0.66794065  0.87795617     0.00900
C1090       C  0.07078485  0.69263076  0.90317644    -0.11280
C1091       C  0.05384002  0.71796489  0.89133275     0.03390
C1092       C  0.05063876  0.72279952  0.85278481    -0.10700
H1093       H  0.08134574  0.65473392  0.82031308     0.08990
H1094       H  0.07610964  0.69169310  0.93265701     0.06520
H1095       H  0.03851906  0.74276713  0.84318420     0.06360
C1096       C  0.14033314  0.60631394  0.89056465     0.03400
C1097       C  0.13996312  0.60746216  0.92988937    -0.12750
C1098       C  0.11868767  0.62488117  0.94819279     0.00900
C1099       C  0.08583198  0.62656356  0.92914574    -0.11280
C1100       C  0.09273546  0.63765259  0.89176249     0.03390
C1101       C  0.11860139  0.62479857  0.87144037    -0.10700
H1102       H  0.16427282  0.60500154  0.94627442     0.08990
H1103       H  0.06382170  0.63198861  0.94543355     0.06520
H1104       H  0.12365791  0.63106680  0.84221341     0.06360
C1105       C  0.11619509  0.92750981  0.71603986     0.00110
C1106       C  0.10980668  0.95595259  0.73678246    -0.11760
C1107       C  0.11666302  0.95931328  0.77512934     0.02350
C1108       C  0.12966791  0.93342294  0.79344660     0.00030
C1109       C  0.13884460  0.90690186  0.77247193    -0.11700
C1110       C  0.13205718  0.90362389  0.73389498     0.02180
H1111       H  0.09937743  0.97559490  0.72290999     0.15220
H1112       H  0.14943808  0.88749432  0.78642369     0.15220
C1113       C  0.13969671  0.87433184  0.71352663     0.36870
C1114       C  0.10947030  0.98912145  0.79521951     0.36770
N1115       N  0.14592706  0.85096667  0.69711204    -0.43470
N1116       N  0.10354893  0.51273603  0.81133138    -0.43470
C1117       C  0.22173113  0.58894041  0.70269317     0.00110
C1118       C  0.22500180  0.55864982  0.72325722    -0.11760
C1119       C  0.22604166  0.55989234  0.76229997     0.02350
C1120       C  0.22349286  0.59203098  0.78175574     0.00030
C1121       C  0.22418826  0.62416503  0.76083366    -0.11700
C1122       C  0.22323268  0.62284710  0.72192504     0.02240
H1123       H  0.22436252  0.53270030  0.70884178     0.15220
H1124       H  0.22396903  0.64988254  0.77489473     0.15220
C1125       C  0.22166741  0.65576142  0.70211264     0.36870
C1126       C  0.22805995  0.52667312  0.78101202     0.36770
N1127       N  0.21916960  0.68092679  0.68521478    -0.43470
N1128       N  0.23076581  0.50025868  0.79543060    -0.43470
C1129       C  0.06085551  0.69954836  0.70750956     0.00110
C1130       C  0.07576639  0.73693663  0.72691666    -0.11760
C1131       C  0.07237523  0.73814228  0.76568894     0.02350
C1132       C  0.05474470  0.70147231  0.78587265     0.00030
C1133       C  0.03559640  0.66426118  0.76596686    -0.11700
C1134       C  0.03850764  0.66289702  0.72741600     0.02240
H1135       H  0.09157603  0.76538409  0.71198669     0.15220
H1136       H  0.01965800  0.63578185  0.78091396     0.15220
C1137       C  0.51896168  0.62320202  0.70949353     0.36870
C1138       C  0.08754211  0.77723682  0.78393928     0.36770
N1139       N  0.50397337  0.59118600  0.69556859    -0.43470
N1140       N  0.09845273  0.80835112  0.79876977    -0.43470
C1141       C  0.40347459  0.60872875  0.71365946     0.00110
C1142       C  0.42916159  0.64354944  0.73518543    -0.11760
C1143       C  0.42518610  0.64384481  0.77383616     0.02350
C1144       C  0.39616501  0.60800250  0.79239709     0.00030
C1145       C  0.36787061  0.57440495  0.77036303    -0.11700
C1146       C  0.37064536  0.57473955  0.73151308     0.02240
H1147       H  0.45375064  0.67034579  0.72196982     0.15220
H1148       H  0.34358969  0.54744437  0.78361253     0.15220
C1149       C  0.33906339  0.53988962  0.71078895     0.36870
C1150       C  0.45123866  0.68181602  0.79294712     0.36770
N1151       N  0.31379549  0.51188042  0.69427015    -0.43470
N1152       N  0.47085444  0.71310371  0.80757927    -0.43470
C1153       C  0.37666410  0.78339018  0.78726403     0.00110
C1154       C  0.33796592  0.77579635  0.77008643    -0.11760
C1155       C  0.33250082  0.77257402  0.73149342     0.02350
C1156       C  0.36610583  0.77642598  0.70889597     0.00030
C1157       C  0.40352792  0.78040192  0.72625976    -0.11700
C1158       C  0.40929659  0.78438806  0.76494292     0.02240
H1159       H  0.31259174  0.77508573  0.78676045     0.15220
H1160       H  0.42934503  0.78254388  0.70933460     0.15220
C1161       C  0.44944869  0.79073213  0.78062080     0.36870
C1162       C  0.29322161  0.76875649  0.71637583     0.36770
N1163       N  0.48199336  0.79666108  0.79302888    -0.43470
N1164       N  0.26114080  0.76549732  0.70547917    -0.43470
C1165       C  0.30657114  0.86759907  0.71816434     0.00110
C1166       C  0.26654363  0.85366601  0.73429716    -0.11760
C1167       C  0.26157747  0.84714867  0.77264923     0.02350
C1168       C  0.29692062  0.85438597  0.79545691     0.00030
C1169       C  0.33627367  0.86577207  0.77896624    -0.11700
C1170       C  0.34144066  0.87252418  0.74081019     0.02240
H1171       H  0.23940446  0.84907531  0.71708597     0.15220
H1172       H  0.36357415  0.87108698  0.79634440     0.15220
C1173       C  0.38289021  0.88435172  0.72576943     0.36870
C1174       C  0.22069964  0.83567304  0.78840836     0.36770
N1175       N  0.41624337  0.89408079  0.71396413    -0.43470
N1176       N  0.18817925  0.82644149  0.80166495    -0.43470
C1177       C  0.18111437  0.62343305  0.28286365     0.00110
C1178       C  0.14448926  0.61200343  0.26076107    -0.11760
C1179       C  0.14701800  0.61624523  0.22221884     0.02350
C1180       C  0.18698250  0.63180531  0.20488196     0.00030
C1181       C  0.22388510  0.64589879  0.22714252    -0.11700
C1182       C  0.22132506  0.64207667  0.26584399     0.02240
H1183       H  0.11363158  0.59918515  0.27367580     0.15220
H1184       H  0.25463139  0.65795063  0.21415208     0.15220
C1185       C  0.26037047  0.65620505  0.28715451     0.36870
C1186       C  0.10780026  0.60277006  0.20111590     0.36770
N1187       N  0.29156352  0.66830585  0.30457560    -0.43470
N1188       N  0.07611287  0.59112194  0.18447508    -0.43470
C1189       C  0.11985820  0.71283444  0.29563929     0.00110
C1190       C  0.15597444  0.71955494  0.27582752    -0.11760
C1191       C  0.15627081  0.72144825  0.23701345     0.02350
C1192       C  0.11919661  0.71554603  0.21691744     0.00030
C1193       C  0.08437102  0.71235669  0.23713409    -0.11700
C1194       C  0.08441236  0.71103534  0.27603116     0.02240
H1195       H  0.18339746  0.72112128  0.29064311     0.15220
H1196       H  0.05633042  0.70949127  0.22244983     0.15220
C1197       C  0.04734647  0.70702530  0.29507133     0.36870
C1198       C  0.19479275  0.72791796  0.21916450     0.36770
N1199       N  0.01756319  0.70358248  0.31031954    -0.43470
N1200       N  0.22640136  0.73422260  0.20553072    -0.43470
C1201       C  0.08484335  0.87643246  0.28597347     0.00110
C1202       C  0.06153046  0.84085596  0.26463930    -0.11760
C1203       C  0.06635530  0.84042499  0.22607810     0.02350
C1204       C  0.09405650  0.87694977  0.20741240     0.00030
C1205       C  0.12060630  0.91126732  0.22955071    -0.11700
C1206       C  0.11678450  0.91115649  0.26826603     0.02240
H1207       H  0.03792153  0.81347426  0.27788938     0.15220
H1208       H  0.14431669  0.93871717  0.21649839     0.15220
C1209       C  0.14643149  0.94706284  0.28902063     0.36870
C1210       C  0.04215619  0.80162216  0.20746261     0.36770
N1211       N  0.17008291  0.97591441  0.30558124    -0.43470
N1212       N  0.52390088  0.76963223  0.19367254    -0.43470
C1213       C  0.43265892  0.78518094  0.29435919     0.00110
C1214       C  0.45594889  0.82285180  0.27689835    -0.11760
C1215       C  0.46051003  0.82502807  0.23833961     0.02350
C1216       C  0.44044056  0.78899096  0.21619500     0.00030
C1217       C  0.42058195  0.75115511  0.23385453    -0.11700
C1218       C  0.41706724  0.74897922  0.27258797     0.02240
H1219       H  0.47023299  0.85078606  0.29342847     0.15220
H1220       H  0.40586600  0.72326502  0.21728873     0.15220
C1221       C  0.39632320  0.70919725  0.28904173     0.36870
C1222       C  0.48583364  0.86470166  0.22220810     0.36770
N1223       N  0.38091649  0.67749873  0.30276986    -0.43470
N1224       N  0.50611731  0.89646214  0.20929546    -0.43470
C1225       C  0.36721444  0.54519084  0.28615274     0.00110
C1226       C  0.38053847  0.52259263  0.26396148    -0.11760
C1227       C  0.37465862  0.52087878  0.22546797     0.02350
C1228       C  0.35740603  0.54412484  0.20842436     0.00030
C1229       C  0.34132565  0.56432291  0.23071250    -0.11700
C1230       C  0.34495313  0.56400726  0.26940017     0.02240
H1231       H  0.39523165  0.50593804  0.27681861     0.15220
H1232       H  0.32708259  0.58137683  0.21787524     0.15220
C1233       C  0.32522777  0.58280164  0.29110564     0.36870
C1234       C  0.38690271  0.49535762  0.20402028     0.36770
N1235       N  0.30816583  0.59633277  0.30891664    -0.43470
N1236       N  0.39683817  0.47503209  0.18683965    -0.43470
C1237       C  0.26537229  0.89129272  0.21866577     0.00110
C1238       C  0.26282639  0.85736309  0.23785179    -0.11760
C1239       C  0.26120513  0.85562644  0.27673053     0.02350
C1240       C  0.26248122  0.88850582  0.29763423     0.00030
C1241       C  0.26071946  0.92044442  0.27857502    -0.11700
C1242       C  0.26163979  0.92192752  0.23958504     0.02240
H1243       H  0.26345204  0.83253802  0.22248975     0.15220
H1244       H  0.26095861  0.94552927  0.29422965     0.15220
C1245       C  0.25975052  0.95598297  0.22246523     0.36870
C1246       C  0.25968063  0.82026813  0.29462418     0.36770
N1247       N  0.25679545  0.48278832  0.20916722    -0.43470
N1248       N  0.25886359  0.79217954  0.30906825    -0.43470
O1249       O  0.80474411  0.46915369  0.94959217    -0.80620
O1250       O  0.66191418  0.99312319  0.99601916    -0.65310
O1251       O  0.77405660  0.01684377  0.97598207    -1.11910
C1252       C  0.75907129  0.44321994  0.08935915     1.06270
O1253       O  0.68940453  0.02020419  0.05069605    -0.78520
O1254       O  0.76085497  0.02798513  0.09164176    -0.66100
Ni1255     Ni  0.78793283  0.00679322  0.92771270     1.34870
C1256       C  0.79839685  0.04087950  0.07995320     0.85000
O1257       O  0.71567582  0.03432998  0.94179750    -0.79060
O1258       O  0.77062972  0.04424662  0.90543280    -0.89330
C1259       C  0.65807805  0.00618204  0.02730572     0.84580
O1260       O  0.73416352  0.46486930  0.90780766    -0.67530
O1261       O  0.72677095  0.44832926  0.09658235    -0.86820
C1262       C  0.69731151  0.45194597  0.92107129     0.85410
C1263       C  0.73738842  0.04792771  0.91226091     1.06970
H1264       H  0.70451730  0.44539871  0.02071713     0.38780
O1265       O  0.72241860  0.47420636  0.02565645    -1.09480
O1266       O  0.80550208  0.03474849  0.04668773    -0.66130
Ni1267     Ni  0.77828155  0.48572991  0.01704804     1.26350
O1268       O  0.69278902  0.45516423  0.95551934    -0.66360
O1269       O  0.78007800  0.45534303  0.05926025    -0.78650
C1270       C  0.83632600  0.48215309  0.97273519     0.84790
O1271       O  0.83356585  0.49563574  0.00424278    -0.65830
Ni1272     Ni  0.70784879  0.48417144  0.07333914     1.27450
Ni1273     Ni  0.71789144  0.00458482  0.98427759     1.26060
H1274       H  0.79188123  0.04560004  0.98123558     0.39330
O1275       O  0.66556864  0.19510936  0.94520677    -0.80620
O1276       O  0.82846098  0.32540237  0.00460997    -0.65310
O1277       O  0.74325605  0.22170320  0.97425717    -1.11910
C1278       C  0.68024400  0.23135827  0.08836121     1.06270
O1279       O  0.82657394  0.29334846  0.05618088    -0.78520
O1280       O  0.76288606  0.22484972  0.09162769    -0.66100
Ni1281     Ni  0.72101616  0.21261963  0.92484378     1.34870
C1282       C  0.73866439  0.18985155  0.07753217     0.85000
O1283       O  0.82032662  0.27774545  0.94690744    -0.79060
O1284       O  0.77719106  0.23266850  0.90334514    -0.89330
C1285       C  0.84366590  0.32542970  0.03639510     0.84580
O1286       O  0.72616097  0.26429320  0.91146299    -0.67530
O1287       O  0.71641008  0.26127576  0.09820147    -0.86820
C1288       C  0.75110016  0.29938368  0.92471801     0.85410
C1289       C  0.81305128  0.26264452  0.91404838     1.06970
H1290       H  0.73726551  0.28747501  0.02399111     0.38780
O1291       O  0.74862890  0.26878682  0.02783524    -1.09480
O1292       O  0.72732713  0.18569061  0.04338732    -0.66130
Ni1293     Ni  0.70615531  0.21644048  0.01482774     1.26350
O1294       O  0.76440583  0.30449307  0.95842201    -0.66360
O1295       O  0.67249273  0.21393001  0.05626172    -0.78650
C1296       C  0.64879570  0.16354093  0.96553846     0.84790
O1297       O  0.66307178  0.16481188  0.99802309    -0.65830
Ni1298     Ni  0.77168095  0.27790482  0.07692696     1.27450
Ni1299     Ni  0.78565960  0.27411959  0.98751799     1.26060
H1300       H  0.75471845  0.20313319  0.97820349     0.39330
O1301       O  0.82199420  0.51065549  0.55883509    -0.80620
O1302       O  0.66475766  0.50009897  0.49362665    -0.65310
O1303       O  0.74253918  0.46695074  0.52925840    -1.11910
C1304       C  0.81074680  0.02093765  0.41456983     1.06270
O1305       O  0.66305274  0.46459376  0.44393246    -0.78520
O1306       O  0.71954249  0.44289365  0.41381072    -0.66100
Ni1307     Ni  0.76537765  0.48094342  0.57816679     1.34870
C1308       C  0.74284187  0.42920585  0.42788874     0.85000
O1309       O  0.66809081  0.46217556  0.55505777    -0.79060
O1310       O  0.70888192  0.45344403  0.59893445    -0.89330
C1311       C  0.64793861  0.48347954  0.46291616     0.84580
O1312       O  0.76354841  0.03034499  0.58907539    -0.67530
O1313       O  0.77568273  0.01931896  0.40302611    -0.86820
C1314       C  0.74170081  0.04513379  0.57401378     0.85410
C1315       C  0.67421933  0.45303285  0.58797481     1.06970
H1316       H  0.75599573  0.03662444  0.47484130     0.38780
O1317       O  0.74204507  0.00711916  0.47279473    -1.09480
O1318       O  0.75710693  0.43801011  0.46138988    -0.66130
Ni1319     Ni  0.78081230  0.98976231  0.48869484     1.26350
O1320       O  0.72874517  0.03684922  0.54019696    -0.66360
O1321       O  0.81713523  0.01295684  0.44778668    -0.78650
C1322       C  0.83849811  0.49382939  0.53864710     0.84790
O1323       O  0.82047097  0.47527846  0.50892012    -0.65830
Ni1324     Ni  0.71923811  0.99303518  0.42395662     1.27450
Ni1325     Ni  0.70394370  0.48473060  0.51361768     1.26060
H1326       H  0.72864093  0.43759857  0.52700018     0.39330
O1327       O  0.50388725  0.31290530  0.94193673    -0.80620
O1328       O  0.99882863  0.16202557  0.00249991    -0.65310
O1329       O  0.96588697  0.24095240  0.97812945    -1.11910
C1330       C  0.56275449  0.31628848  0.07823774     1.06270
O1331       O  0.98344667  0.17032963  0.06014791    -0.78520
O1332       O  0.97819619  0.23485819  0.09542692    -0.66100
Ni1333     Ni  0.96607262  0.25684485  0.92810766     1.34870
C1334       C  0.95861692  0.25370457  0.08379234     0.85000
O1335       O  0.94372733  0.16328521  0.95221997    -0.79060
O1336       O  0.92846994  0.20113170  0.91201198    -0.89330
C1337       C  0.99161091  0.15013622  0.03557821     0.84580
O1338       O  0.51169958  0.25011347  0.90728510    -0.67530
O1339       O  0.56109460  0.28253081  0.08848198    -0.86820
C1340       C  0.53071648  0.23066892  0.91870922     0.85410
C1341       C  0.92584201  0.16710552  0.92243828     1.06970
H1342       H  0.55010653  0.25195136  0.01445891     0.38780
O1343       O  0.52147824  0.24158464  0.02334148    -1.09480
O1344       O  0.95994704  0.26401234  0.04990571    -0.66130
Ni1345     Ni  0.50425615  0.28084383  0.01350267     1.26350
O1346       O  0.52700126  0.21760692  0.95185683    -0.66360
O1347       O  0.54325171  0.31931951  0.04925322    -0.78650
C1348       C  0.49591993  0.33259878  0.96705604     0.84790
O1349       O  0.48747284  0.31968329  0.99968463    -0.65830
Ni1350     Ni  0.52236063  0.22647980  0.07343990     1.27450
Ni1351     Ni  0.98270870  0.20142572  0.98819352     1.26060
H1352       H  0.93714165  0.23068246  0.98668178     0.39330
O1353       O  0.98262249  0.16859829  0.44349489    -0.80620
O1354       O  0.97826362  0.31445069  0.50326684    -0.65310
O1355       O  0.52021929  0.24407245  0.47401063    -1.11910
C1356       C  0.95522875  0.17534542  0.58764298     1.06270
O1357       O  0.01117905  0.31708541  0.55659173    -0.78520
O1358       O  0.53343295  0.26319184  0.59101286    -0.66100
Ni1359     Ni  0.51169503  0.22344614  0.42469646     1.34870
C1360       C  0.55060140  0.24307640  0.57777593     0.85000
O1361       O  0.52306056  0.31459241  0.44467379    -0.79060
O1362       O  0.53884698  0.27823488  0.40350951    -0.89330
C1363       C  0.99325146  0.33122488  0.53433861     0.84580
O1364       O  0.95904722  0.22133121  0.41065059    -0.67530
O1365       O  0.95315347  0.20778664  0.59695617    -0.86820
C1366       C  0.94170772  0.24127061  0.42382538     0.85410
C1367       C  0.53611352  0.31036390  0.41275206     1.06970
H1368       H  0.94259334  0.22695478  0.52261743     0.38780
O1369       O  0.97300699  0.24169081  0.52686555    -1.09480
O1370       O  0.54665067  0.23334064  0.54345776    -0.66130
Ni1371     Ni  0.99461329  0.20654258  0.51440474     1.26350
O1372       O  0.94602686  0.25167315  0.45793532    -0.66360
O1373       O  0.96896224  0.17110266  0.55601490    -0.78650
C1374       C  0.99887032  0.15365292  0.46661721     0.84790
O1375       O  0.01418915  0.17073105  0.49755103    -0.65830
Ni1376     Ni  0.98152153  0.26251981  0.57601869     1.27450
Ni1377     Ni  0.49827673  0.27910175  0.48643103     1.26060
H1378       H  0.55063520  0.25882059  0.47839443     0.39330
C1379       C  0.54399126  0.12255910  0.40314756     0.03400
C1380       C  0.54012600  0.12582210  0.44169109    -0.12750
C1381       C  0.00118291  0.11736776  0.45526391     0.00900
C1382       C  0.96492067  0.08846188  0.43751890    -0.11280
C1383       C  0.96541152  0.07794891  0.39998207     0.03390
C1384       C  0.00583539  0.09638751  0.38231745    -0.10700
H1385       H  0.56642994  0.14634739  0.45918684     0.08990
H1386       H  0.93583578  0.08344692  0.45056376     0.06520
H1387       H  0.00716332  0.09220153  0.35279337     0.06360
C1388       C  0.77166303  0.39257893  0.33850372     0.03400
C1389       C  0.74831688  0.40287111  0.36385814    -0.12750
C1390       C  0.75872471  0.40740931  0.40236973     0.00900
C1391       C  0.79173080  0.39965630  0.41462239    -0.11280
C1392       C  0.81734988  0.39190483  0.38933677     0.03390
C1393       C  0.80709346  0.38924555  0.35147462    -0.10700
H1394       H  0.72312141  0.40864716  0.35335604     0.08990
H1395       H  0.79770148  0.40090473  0.44418472     0.06520
H1396       H  0.82699071  0.38488422  0.33155426     0.06360
C1397       C  0.87490700  0.04642678  0.32670749     0.03400
C1398       C  0.84032510  0.03374176  0.35047777    -0.12750
C1399       C  0.84603508  0.03148515  0.38848957     0.00900
C1400       C  0.88551654  0.03694447  0.40163873    -0.11280
C1401       C  0.92249506  0.05626635  0.38007788     0.03390
C1402       C  0.91641594  0.05960865  0.34167842    -0.10700
H1403       H  0.80865020  0.02420899  0.33926935     0.08990
H1404       H  0.88770967  0.02822807  0.42986095     0.06520
H1405       H  0.94330866  0.07286032  0.32344336     0.06360
C1406       C  0.89064091  0.34308365  0.40304491     0.03400
C1407       C  0.86537449  0.35782125  0.38391232    -0.12750
C1408       C  0.85324932  0.38465412  0.40275335     0.00900
C1409       C  0.86840322  0.39578216  0.43958077    -0.11280
C1410       C  0.87576127  0.36768746  0.45927747     0.03390
C1411       C  0.90078403  0.35446729  0.44078415    -0.10700
H1412       H  0.85274159  0.34589553  0.35649153     0.08990
H1413       H  0.86208088  0.41693261  0.45544795     0.06520
H1414       H  0.91930564  0.34419900  0.45735743     0.06360
C1415       C  0.92351295  0.28475156  0.33468523     0.03400
C1416       C  0.93105513  0.25953723  0.35922014    -0.12750
C1417       C  0.92244328  0.25874884  0.39727505     0.00900
C1418       C  0.90562202  0.28353731  0.41031615    -0.11280
C1419       C  0.90124149  0.31189691  0.38690801     0.03390
C1420       C  0.90929826  0.31140285  0.34890874    -0.10700
H1421       H  0.94623306  0.24240154  0.34888277     0.08990
H1422       H  0.89811505  0.28196014  0.43943263     0.06520
H1423       H  0.90545494  0.33235919  0.33042316     0.06360
C1424       C  0.57232416  0.37747287  0.32526874     0.03400
C1425       C  0.56258341  0.34443504  0.34967906    -0.12750
C1426       C  0.54668506  0.34430637  0.38533046     0.00900
C1427       C  0.53931393  0.37713477  0.39500018    -0.11280
C1428       C  0.55554865  0.41336764  0.37393035     0.03390
C1429       C  0.56864264  0.41155669  0.33788680    -0.10700
H1430       H  0.56695250  0.31887589  0.34075982     0.08990
H1431       H  0.52345902  0.37565539  0.42073124     0.06520
H1432       H  0.57728381  0.43728602  0.31983285     0.06360
C1433       C  0.61479179  0.02973728  0.39279635     0.03400
C1434       C  0.58599887  0.49244551  0.37421912    -0.12750
C1435       C  0.57008882  0.45420350  0.39318300     0.00900
C1436       C  0.58069818  0.45554769  0.43108985    -0.11280
C1437       C  0.61472478  0.48979167  0.44589336     0.03390
C1438       C  0.62892994  0.02680271  0.42873603    -0.10700
H1439       H  0.57806971  0.49299508  0.34521765     0.08990
H1440       H  0.57211329  0.42812469  0.44673499     0.06520
H1441       H  0.65717090  0.05188949  0.44102053     0.06360
C1442       C  0.61864158  0.20353857  0.33584300     0.03400
C1443       C  0.58479028  0.16719451  0.34905180    -0.12750
C1444       C  0.58428043  0.15521064  0.38601092     0.00900
C1445       C  0.62059387  0.17966946  0.40859605    -0.11280
C1446       C  0.65302396  0.21776824  0.39733580     0.03390
C1447       C  0.65231853  0.22905660  0.36025882    -0.10700
H1448       H  0.55887901  0.14856721  0.33019202     0.08990
H1449       H  0.62465476  0.16893011  0.43527730     0.06520
H1450       H  0.67821748  0.25707395  0.35014056     0.06360
C1451       C  0.67599492  0.11590280  0.32342235     0.03400
C1452       C  0.69976102  0.14792510  0.34877667    -0.12750
C1453       C  0.69262628  0.14235614  0.38682275     0.00900
C1454       C  0.65851109  0.10579953  0.39858878    -0.11280
C1455       C  0.63820788  0.07116456  0.37503118     0.03390
C1456       C  0.64648268  0.07695295  0.33680104    -0.10700
H1457       H  0.72230748  0.17774826  0.33881197     0.08990
H1458       H  0.64909933  0.10357826  0.42726185     0.06520
H1459       H  0.63095365  0.05151344  0.31749410     0.06360
C1460       C  0.77680637  0.39599235  0.17825648     0.03400
C1461       C  0.80875692  0.38655785  0.16566418    -0.12750
C1462       C  0.82504725  0.39703524  0.12960174     0.00900
C1463       C  0.81120102  0.42015567  0.10824746    -0.11280
C1464       C  0.77509960  0.42371903  0.11707090     0.03390
C1465       C  0.75772220  0.41129142  0.15240995    -0.10700
H1466       H  0.82148339  0.37215770  0.18425973     0.08990
H1467       H  0.82811371  0.43468802  0.08342091     0.06520
H1468       H  0.73052691  0.41485845  0.16014865     0.06360
C1469       C  0.86239756  0.05309399  0.16833534     0.03400
C1470       C  0.82850518  0.04899541  0.14503329    -0.12750
C1471       C  0.83506624  0.05808571  0.10694986     0.00900
C1472       C  0.87664049  0.07393108  0.09364479    -0.11280
C1473       C  0.91058849  0.07677700  0.11657161     0.03390
C1474       C  0.90288275  0.06692119  0.15384338    -0.10700
H1475       H  0.79682112  0.03642800  0.15603381     0.08990
H1476       H  0.88167945  0.08259520  0.06481392     0.06520
H1477       H  0.92839477  0.06939697  0.17202718     0.06360
C1478       C  0.90063332  0.35059352  0.11007540     0.03400
C1479       C  0.90694695  0.36093870  0.07254751    -0.12750
C1480       C  0.87441682  0.36354634  0.05393504     0.00900
C1481       C  0.85415806  0.38189900  0.07237794    -0.11280
C1482       C  0.85406752  0.38303149  0.11165897     0.03390
C1483       C  0.87549402  0.36417675  0.13061473    -0.10700
H1484       H  0.92809752  0.35450249  0.05601159     0.08990
H1485       H  0.83024330  0.38530499  0.05622663     0.06520
H1486       H  0.87081447  0.35832102  0.15993381     0.06360
C1487       C  0.93477139  0.29057338  0.17530958     0.03400
C1488       C  0.94267978  0.26587992  0.15000924    -0.12750
C1489       C  0.93793797  0.26901896  0.11136362     0.00900
C1490       C  0.92145751  0.29467881  0.09920488    -0.11280
C1491       C  0.91433288  0.32055056  0.12408325     0.03390
C1492       C  0.92029550  0.31722502  0.16195141    -0.10700
H1493       H  0.95389987  0.24540202  0.16025687     0.08990
H1494       H  0.91519112  0.29472343  0.06978914     0.06520
H1495       H  0.91390407  0.33564512  0.18150194     0.06360
C1496       C  0.59425271  0.38174957  0.16576423     0.03400
C1497       C  0.58889845  0.35001136  0.14103303    -0.12750
C1498       C  0.58419989  0.35339813  0.10265873     0.00900
C1499       C  0.59176614  0.39126670  0.08853157    -0.11280
C1500       C  0.59802095  0.42435131  0.11192466     0.03390
C1501       C  0.59802608  0.41853064  0.15063797    -0.10700
H1502       H  0.58695291  0.32201285  0.15128628     0.08990
H1503       H  0.59200039  0.39388545  0.05872656     0.06520
H1504       H  0.60017742  0.44238956  0.16918780     0.06360
C1505       C  0.63603995  0.03980082  0.09530289     0.03400
C1506       C  0.62259980  0.03657549  0.05805315    -0.12750
C1507       C  0.61689941  0.50204201  0.03874344     0.00900
C1508       C  0.59404859  0.46557246  0.05746678    -0.11280
C1509       C  0.60442193  0.46423188  0.09537502     0.03390
C1510       C  0.62676482  0.50272391  0.11431656    -0.10700
H1511       H  0.62929049  0.06351839  0.04216224     0.08990
H1512       H  0.57650782  0.43839835  0.04065815     0.06520
H1513       H  0.63932075  0.50414604  0.14210078     0.06360
C1514       C  0.61370489  0.20664773  0.17600429     0.03400
C1515       C  0.64682816  0.22869955  0.15104196    -0.12750
C1516       C  0.64536593  0.21272766  0.11540167     0.00900
C1517       C  0.61096578  0.17482300  0.10584906    -0.11280
C1518       C  0.57318266  0.15806049  0.12570109     0.03390
C1519       C  0.57560020  0.17326302  0.16208610    -0.10700
H1520       H  0.67436039  0.25676201  0.15986506     0.08990
H1521       H  0.61366152  0.15867880  0.08198272     0.06520
H1522       H  0.54897872  0.15824677  0.18027176     0.06360
C1523       C  0.69011209  0.12703771  0.16429554     0.03400
C1524       C  0.71745114  0.15946317  0.14152977    -0.12750
C1525       C  0.71858433  0.15360813  0.10277222     0.00900
C1526       C  0.69288493  0.11401524  0.08801554    -0.11280
C1527       C  0.66539081  0.08121215  0.11085559     0.03390
C1528       C  0.66524784  0.08825262  0.14872969    -0.10700
H1529       H  0.73606969  0.18955922  0.15369506     0.08990
H1530       H  0.69405434  0.10922805  0.05850663     0.06520
H1531       H  0.64480593  0.06340627  0.16644210     0.06360
C1532       C  0.53220161  0.12841732  0.10602325     0.03400
C1533       C  0.53180002  0.12532093  0.06670987    -0.12750
C1534       C  0.99422172  0.11385989  0.04707732     0.00900
C1535       C  0.95742552  0.08536800  0.06327961    -0.11280
C1536       C  0.95368898  0.08935674  0.10153792     0.03390
C1537       C  0.99189509  0.11073747  0.12329588    -0.10700
H1538       H  0.55973581  0.14306010  0.05065444     0.08990
H1539       H  0.92978464  0.06916073  0.04532247     0.06520
H1540       H  0.99003754  0.11588902  0.15248816     0.06360
O1541       O  0.68175264  0.16892586  0.55676557    -0.80620
O1542       O  0.83315101  0.31431011  0.50023274    -0.65310
O1543       O  0.72046168  0.24506967  0.52748621    -1.11910
C1544       C  0.71651061  0.17567903  0.41435186     1.06270
O1545       O  0.80379160  0.31771358  0.44695335    -0.78520
O1546       O  0.72659799  0.26396840  0.41081327    -0.66100
Ni1547     Ni  0.70796227  0.22451822  0.57643453     1.34870
C1548       C  0.68992121  0.24138654  0.42346484     0.85000
O1549       O  0.78636793  0.31539764  0.55634392    -0.79060
O1550       O  0.73536329  0.27974460  0.59769899    -0.89330
C1551       C  0.83561040  0.33195951  0.46988450     0.84580
O1552       O  0.75871358  0.22305347  0.59275350    -0.67530
O1553       O  0.75044810  0.20787200  0.40487828    -0.86820
C1554       C  0.79548616  0.24505105  0.58008163     0.85410
C1555       C  0.76959323  0.31164614  0.58812053     1.06970
H1556       H  0.78157362  0.22683855  0.47948650     0.38780
O1557       O  0.76574539  0.24155081  0.47533415    -1.09480
O1558       O  0.68526554  0.23469033  0.45809930    -0.66130
Ni1559     Ni  0.70910355  0.20711524  0.48729199     1.26350
O1560       O  0.80036791  0.25149489  0.54535140    -0.66360
O1561       O  0.69987920  0.17119970  0.44630277    -0.78650
C1562       C  0.65115297  0.15380206  0.53253529     0.84790
O1563       O  0.65346368  0.17202253  0.50262037    -0.65830
Ni1564     Ni  0.77769271  0.26264718  0.42652973     1.27450
Ni1565     Ni  0.77719316  0.27939967  0.51561087     1.26060
H1566       H  0.70481482  0.25990847  0.52308759     0.39330
C1567       C  0.79412646  0.34557010  0.61512231     0.03400
C1568       C  0.83207216  0.37895385  0.60371158    -0.12750
C1569       C  0.85341603  0.41472476  0.62560833     0.00900
C1570       C  0.84362153  0.41157570  0.66353590    -0.11280
C1571       C  0.81108624  0.37465043  0.67755993     0.03390
C1572       C  0.78390386  0.34353391  0.65261790    -0.10700
H1573       H  0.84382846  0.37807842  0.57642170     0.08990
H1574       H  0.86067197  0.43727122  0.68227648     0.06520
H1575       H  0.75655058  0.31679223  0.66265425     0.06360
C1576       C  0.86628971  0.28367726  0.66818472     0.03400
C1577       C  0.83224865  0.25808712  0.64399802    -0.12750
C1578       C  0.83235009  0.26830082  0.60632297     0.00900
C1579       C  0.86590558  0.30527218  0.59430643    -0.11280
C1580       C  0.90255186  0.32893784  0.61660374     0.03390
C1581       C  0.90159107  0.31801029  0.65384299    -0.10700
H1582       H  0.80569021  0.23088179  0.65456395     0.08990
H1583       H  0.86312924  0.31562634  0.56697782     0.06520
H1584       H  0.92849694  0.33588231  0.67204530     0.06360
C1585       C  0.87875577  0.45497858  0.60637387     0.03400
C1586       C  0.86770259  0.45641511  0.56888218    -0.12750
C1587       C  0.87612886  0.49288514  0.55291648     0.00900
C1588       C  0.90675067  0.02893138  0.56840107    -0.11280
C1589       C  0.91810305  0.03070631  0.60613234     0.03390
C1590       C  0.90454216  0.99293362  0.62513310    -0.10700
H1591       H  0.84323471  0.42981800  0.55462677     0.08990
H1592       H  0.91142767  0.05601852  0.55373258     0.06520
H1593       H  0.91169908  0.99320278  0.65441618     0.06360
C1594       C  0.91487289  0.10723588  0.67407379     0.03400
C1595       C  0.92675047  0.14103477  0.65017898    -0.12750
C1596       C  0.94286061  0.14092713  0.61465448     0.00900
C1597       C  0.94869761  0.10733401  0.60470089    -0.11280
C1598       C  0.93113532  0.07099715  0.62542526     0.03390
C1599       C  0.91653415  0.07232906  0.66095475    -0.10700
H1600       H  0.92396107  0.16736344  0.65943794     0.08990
H1601       H  0.96424338  0.10819069  0.57890907     0.06520
H1602       H  0.90613895  0.04599359  0.67851755     0.06360
C1603       C  0.56958045  0.22495417  0.60424817     0.03400
C1604       C  0.56298949  0.22557424  0.64269370    -0.12750
C1605       C  0.56967955  0.19955558  0.66708233     0.00900
C1606       C  0.58348686  0.17264826  0.65270042    -0.11280
C1607       C  0.58882083  0.17023590  0.61447310     0.03390
C1608       C  0.58415876  0.19840439  0.59091551    -0.10700
H1609       H  0.55003958  0.24447535  0.65351344     0.08990
H1610       H  0.58887441  0.15269228  0.67124104     0.06520
H1611       H  0.58998896  0.19870924  0.56152042     0.06360
C1612       C  0.59709396  0.13744028  0.59832192     0.03400
C1613       C  0.58549280  0.12585273  0.56087757    -0.12750
C1614       C  0.61213407  0.11583385  0.54102559     0.00900
C1615       C  0.62131527  0.08775726  0.55865498    -0.11280
C1616       C  0.63481257  0.09594339  0.59616695     0.03390
C1617       C  0.62248313  0.12202616  0.61636906    -0.10700
H1618       H  0.56571405  0.13550455  0.54537813     0.08990
H1619       H  0.62833469  0.06814196  0.54125282     0.06520
H1620       H  0.63517837  0.13300692  0.64395588     0.06360
C1621       C  0.72584210  0.06764075  0.59865198     0.03400
C1622       C  0.69392404  0.07664495  0.58545483    -0.12750
C1623       C  0.66850205  0.08557119  0.61007268     0.00900
C1624       C  0.67699895  0.08652646  0.64816223    -0.11280
C1625       C  0.71192965  0.08283364  0.66192713     0.03390
C1626       C  0.73550215  0.07218652  0.63725829    -0.10700
H1627       H  0.68881788  0.07555605  0.55579583     0.08990
H1628       H  0.65669236  0.09082002  0.66766005     0.06520
H1629       H  0.76041159  0.06630768  0.64833445     0.06360
C1630       C  0.60881885  0.42594137  0.67552900     0.03400
C1631       C  0.56861813  0.41779258  0.66066849    -0.12750
C1632       C  0.56407881  0.42437677  0.62274900     0.00900
C1633       C  0.60172502  0.44292640  0.60205708    -0.11280
C1634       C  0.63916161  0.44287639  0.61434728     0.03390
C1635       C  0.64311739  0.43589500  0.65186671    -0.10700
H1636       H  0.54150741  0.40605589  0.67868094     0.08990
H1637       H  0.60121189  0.45497672  0.57489500     0.06520
H1638       H  0.67336976  0.44034886  0.66307685     0.06360
C1639       C  0.94337976  0.35946310  0.59899013     0.03400
C1640       C  0.94759438  0.35291238  0.56118584    -0.12750
C1641       C  0.98721804  0.36494474  0.54716757     0.00900
C1642       C  0.52238692  0.39590223  0.56433469    -0.11280
C1643       C  0.52161361  0.40523269  0.60213423     0.03390
C1644       C  0.98113147  0.38683270  0.61953535    -0.10700
H1645       H  0.92190121  0.32910373  0.54520776     0.08990
H1646       H  0.55170792  0.40336922  0.55047652     0.06520
H1647       H  0.97951513  0.39194907  0.64884421     0.06360
C1648       C  0.96026968  0.36944687  0.89996362     0.03400
C1649       C  0.96009179  0.36418774  0.93870157    -0.12750
C1650       C  0.49686408  0.37061361  0.95693834     0.00900
C1651       C  0.53540804  0.39863113  0.94325688    -0.11280
C1652       C  0.53949477  0.40594276  0.90488680     0.03390
C1653       C  0.50074971  0.39156465  0.88318732    -0.10700
H1654       H  0.93149336  0.34379704  0.95293685     0.08990
H1655       H  0.56193658  0.40427274  0.96128125     0.06520
H1656       H  0.50143403  0.39532245  0.85357680     0.06360
C1657       C  0.71496974  0.09055756  0.82266342     0.03400
C1658       C  0.73589603  0.07721875  0.84852865    -0.12750
C1659       C  0.72067331  0.06697436  0.88475329     0.00900
C1660       C  0.68512602  0.07108626  0.89448267    -0.11280
C1661       C  0.66963319  0.09255528  0.87268224     0.03390
C1662       C  0.68369697  0.10070116  0.83577972    -0.10700
H1663       H  0.76241754  0.07289582  0.84004855     0.08990
H1664       H  0.66948309  0.05756549  0.92002411     0.06520
H1665       H  0.66938058  0.11334121  0.81687214     0.06360
C1666       C  0.65890871  0.43704980  0.89587030     0.03400
C1667       C  0.66196654  0.43607830  0.85703907    -0.12750
C1668       C  0.62683766  0.42920080  0.83416832     0.00900
C1669       C  0.58748529  0.41905274  0.84980691    -0.11280
C1670       C  0.58289203  0.41976949  0.88822396     0.03390
C1671       C  0.62005775  0.43104930  0.91064413    -0.10700
H1672       H  0.69195298  0.44281057  0.84468092     0.08990
H1673       H  0.56091193  0.41132778  0.83100076     0.06520
H1674       H  0.62020786  0.43682079  0.93987699     0.06360
C1675       C  0.79635088  0.35935165  0.83628136     0.03400
C1676       C  0.76921124  0.32774031  0.85980350    -0.12750
C1677       C  0.77008857  0.33457424  0.89863218     0.00900
C1678       C  0.79731240  0.37396087  0.91263057    -0.11280
C1679       C  0.82560413  0.40536573  0.88928656     0.03390
C1680       C  0.82455284  0.39753491  0.85141708    -0.10700
H1681       H  0.74930478  0.29758377  0.84804768     0.08990
H1682       H  0.79699425  0.37953817  0.94209427     0.06520
H1683       H  0.84606404  0.42135842  0.83331147     0.06360
C1684       C  0.88219157  0.29327046  0.82777747     0.03400
C1685       C  0.91858556  0.32823619  0.84201015    -0.12750
C1686       C  0.91949722  0.34201114  0.87866516     0.00900
C1687       C  0.88124790  0.32291069  0.89814389    -0.11280
C1688       C  0.84819528  0.28431169  0.88757175     0.03390
C1689       C  0.84847116  0.26990556  0.85176797    -0.10700
H1690       H  0.94545043  0.34490245  0.82442664     0.08990
H1691       H  0.87802774  0.33726996  0.92317330     0.06520
H1692       H  0.82165436  0.24178292  0.84188731     0.06360
C1693       C  0.85616880  0.44635807  0.90439075     0.03400
C1694       C  0.86546795  0.48305680  0.88512202    -0.12750
C1695       C  0.88831677  0.02145916  0.90363652     0.00900
C1696       C  0.89992147  0.02068687  0.94127324    -0.11280
C1697       C  0.87676214  0.48481746  0.96066703     0.03390
C1698       C  0.86981506  0.44972658  0.94164584    -0.10700
H1699       H  0.85219655  0.48142402  0.85758924     0.08990
H1700       H  0.91812315  0.04825204  0.95747875     0.06520
H1701       H  0.86270085  0.42282533  0.95776708     0.06360
C1702       C  0.90519922  0.13065100  0.89729125     0.03400
C1703       C  0.90128972  0.13463921  0.85882914    -0.12750
C1704       C  0.89618203  0.10310056  0.83390156     0.00900
C1705       C  0.89308474  0.06655224  0.84866785    -0.11280
C1706       C  0.89321232  0.06063572  0.88730339     0.03390
C1707       C  0.89777795  0.09278190  0.91099597    -0.10700
H1708       H  0.90360817  0.16282668  0.84858522     0.08990
H1709       H  0.89130865  0.04300780  0.82987884     0.06520
H1710       H  0.89660607  0.08938435  0.94076304     0.06360
C1711       C  0.56051614  0.19991176  0.82694402     0.03400
C1712       C  0.57447170  0.17263383  0.84007790    -0.12750
C1713       C  0.57907710  0.16785661  0.87797510     0.00900
C1714       C  0.57067929  0.19254536  0.90318667    -0.11280
C1715       C  0.55372033  0.21786394  0.89133336     0.03390
C1716       C  0.55052293  0.22269211  0.85278529    -0.10700
H1717       H  0.58125325  0.15463914  0.82033173     0.08990
H1718       H  0.57601110  0.19162790  0.93266772     0.06520
H1719       H  0.53840474  0.24265824  0.84317794     0.06360
C1720       C  0.64030445  0.10628458  0.89057204     0.03400
C1721       C  0.64000761  0.10749419  0.92989568    -0.12750
C1722       C  0.61874191  0.12491477  0.94821028     0.00900
C1723       C  0.58585457  0.12656808  0.92919243    -0.11280
C1724       C  0.59268848  0.13760247  0.89179259     0.03390
C1725       C  0.61852800  0.12472790  0.87145392    -0.10700
H1726       H  0.66435351  0.10506489  0.94625463     0.08990
H1727       H  0.56386000  0.13199470  0.94550073     0.06520
H1728       H  0.62352707  0.13094239  0.84221451     0.06360
C1729       C  0.61619215  0.42741410  0.71602111     0.00110
C1730       C  0.60984083  0.45587460  0.73677112    -0.11760
C1731       C  0.61671315  0.45923096  0.77511539     0.02350
C1732       C  0.62969593  0.43331858  0.79342120     0.00030
C1733       C  0.63883793  0.40677966  0.77243948    -0.11700
C1734       C  0.63203442  0.40350583  0.73386451     0.02180
H1735       H  0.59942965  0.47553469  0.72290657     0.15220
H1736       H  0.64941706  0.38735782  0.78638418     0.15220
C1737       C  0.63963907  0.37419823  0.71348551     0.36870
C1738       C  0.60956105  0.48905853  0.79521641     0.36770
N1739       N  0.64584148  0.35082086  0.69706158    -0.43470
N1740       N  0.60342110  0.01278065  0.81132564    -0.43470
C1741       C  0.72170086  0.08892747  0.70268712     0.00110
C1742       C  0.72497406  0.05863459  0.72324492    -0.11760
C1743       C  0.72600582  0.05986577  0.76228758     0.02350
C1744       C  0.72344242  0.09199338  0.78174976     0.00030
C1745       C  0.72413486  0.12413033  0.76083437    -0.11700
C1746       C  0.72318969  0.12282497  0.72192579     0.02240
H1747       H  0.72434571  0.03269277  0.70882404     0.15220
H1748       H  0.72390803  0.14984173  0.77490031     0.15220
C1749       C  0.72162624  0.15574477  0.70212121     0.36870
C1750       C  0.72803858  0.02664962  0.78099149     0.36770
N1751       N  0.71913300  0.18091844  0.68523306    -0.43470
N1752       N  0.73075932  0.00023873  0.79540152    -0.43470
C1753       C  0.56079328  0.19948408  0.70751723     0.00110
C1754       C  0.57570592  0.23686580  0.72693519    -0.11760
C1755       C  0.57230921  0.23805825  0.76570747     0.02350
C1756       C  0.55466254  0.20138056  0.78587994     0.00030
C1757       C  0.53551960  0.16417631  0.76596445    -0.11700
C1758       C  0.53844181  0.16282549  0.72741358     0.02240
H1759       H  0.59152419  0.26531809  0.71201390     0.15220
H1760       H  0.51957714  0.13569219  0.78090388     0.15220
C1761       C  0.01890695  0.12313592  0.70948146     0.36870
C1762       C  0.58749745  0.27714829  0.78397200     0.36770
N1763       N  0.00392954  0.09112381  0.69554967    -0.43470
N1764       N  0.59842557  0.30825746  0.79881769    -0.43470
C1765       C  0.90342324  0.10869213  0.71364969     0.00110
C1766       C  0.92909930  0.14351086  0.73518201    -0.11760
C1767       C  0.92511080  0.14379912  0.77383160     0.02350
C1768       C  0.89608950  0.10795065  0.79238486     0.00030
C1769       C  0.86780608  0.07435456  0.77034393    -0.11700
C1770       C  0.87059181  0.07469696  0.73149490     0.02240
H1771       H  0.95368912  0.17031171  0.72197251     0.15220
H1772       H  0.84352507  0.04738919  0.78358746     0.15220
C1773       C  0.83901911  0.03984832  0.71076290     0.36870
C1774       C  0.95114687  0.18177074  0.79294827     0.36770
N1775       N  0.81375887  0.01184020  0.69423767    -0.43470
N1776       N  0.97074745  0.21305972  0.80758248    -0.43470
C1777       C  0.87670440  0.28343147  0.78726885     0.00110
C1778       C  0.83800105  0.27583265  0.77009707    -0.11760
C1779       C  0.83252163  0.27259092  0.73150483     0.02350
C1780       C  0.86611724  0.27642871  0.70890208     0.00030
C1781       C  0.90354301  0.28040715  0.72626182    -0.11700
C1782       C  0.90932594  0.28441274  0.76494376     0.02240
H1783       H  0.81263350  0.27513140  0.78677436     0.15220
H1784       H  0.92935295  0.28253751  0.70933333     0.15220
C1785       C  0.94947967  0.29075552  0.78061655     0.36870
C1786       C  0.79323836  0.26876818  0.71639113     0.36770
N1787       N  0.98202482  0.29668016  0.79302006    -0.43470
N1788       N  0.76115608  0.26550583  0.70549465    -0.43470
C1789       C  0.80659688  0.36762444  0.71816289     0.00110
C1790       C  0.76657235  0.35370660  0.73429684    -0.11760
C1791       C  0.76160813  0.34720191  0.77265041     0.02350
C1792       C  0.79695040  0.35443439  0.79545758     0.00030
C1793       C  0.83629999  0.36580579  0.77896633    -0.11700
C1794       C  0.84146495  0.37254639  0.74080881     0.02240
H1795       H  0.73943495  0.34912033  0.71708526     0.15220
H1796       H  0.86359941  0.37111749  0.79634454     0.15220
C1797       C  0.88291086  0.38436006  0.72576642     0.36870
C1798       C  0.72073472  0.33574751  0.78841001     0.36770
N1799       N  0.91626108  0.39407800  0.71395962    -0.43470
N1800       N  0.68821645  0.32653464  0.80166317    -0.43470
C1801       C  0.68112727  0.12345429  0.28286920     0.00110
C1802       C  0.64451150  0.11204461  0.26075922    -0.11760
C1803       C  0.64705494  0.11630206  0.22221871     0.02350
C1804       C  0.68702384  0.13185408  0.20489104     0.00030
C1805       C  0.72391832  0.14592746  0.22715942    -0.11700
C1806       C  0.72134407  0.14209233  0.26585957     0.02240
H1807       H  0.61365017  0.09923235  0.27366671     0.15220
H1808       H  0.75466791  0.15797341  0.21417589     0.15220
C1809       C  0.76038075  0.15620417  0.28718007     0.36870
C1810       C  0.60784732  0.10285222  0.20110608     0.36770
N1811       N  0.79156573  0.16829221  0.30461106    -0.43470
N1812       N  0.57616866  0.09122578  0.18445578    -0.43470
C1813       C  0.61986990  0.21286583  0.29562741     0.00110
C1814       C  0.65598259  0.21957935  0.27581318    -0.11760
C1815       C  0.65628188  0.22148577  0.23699917     0.02350
C1816       C  0.61921316  0.21560169  0.21690464     0.00030
C1817       C  0.58439124  0.21241666  0.23712485    -0.11700
C1818       C  0.58443048  0.21108386  0.27602190     0.02240
H1819       H  0.68340080  0.22113246  0.29062655     0.15220
H1820       H  0.55635480  0.20956437  0.22244284     0.15220
C1821       C  0.54736977  0.20708248  0.29506504     0.36870
C1822       C  0.69480197  0.22795348  0.21914846     0.36770
N1823       N  0.51759099  0.20364743  0.31031591    -0.43470
N1824       N  0.72641015  0.23425756  0.20551428    -0.43470
C1825       C  0.58483831  0.37639549  0.28596693     0.00110
C1826       C  0.56150688  0.34081719  0.26463965    -0.11760
C1827       C  0.56631237  0.34037702  0.22607605     0.02350
C1828       C  0.59401471  0.37689419  0.20740038     0.00030
C1829       C  0.62058287  0.41121244  0.22953091    -0.11700
C1830       C  0.61677844  0.41111073  0.26824838     0.02240
H1831       H  0.53789714  0.31344191  0.27789746     0.15220
H1832       H  0.64429448  0.43865583  0.21647109     0.15220
C1833       C  0.64644246  0.44701658  0.28899383     0.36870
C1834       C  0.54208718  0.30157379  0.20746791     0.36770
N1835       N  0.67010819  0.47586765  0.30554703    -0.43470
N1836       N  0.02380799  0.26958327  0.19368289    -0.43470
C1837       C  0.93263267  0.28513862  0.29435987     0.00110
C1838       C  0.95592313  0.32280506  0.27689283    -0.11760
C1839       C  0.96047308  0.32497305  0.23833330     0.02350
C1840       C  0.94038821  0.28893208  0.21619460     0.00030
C1841       C  0.92053191  0.25109979  0.23386005    -0.11700
C1842       C  0.91703179  0.24893210  0.27259456     0.02240
H1843       H  0.97021611  0.35074224  0.29341877     0.15220
H1844       H  0.90580710  0.22320664  0.21729888     0.15220
C1845       C  0.89629599  0.20915392  0.28905613     0.36870
C1846       C  0.98580063  0.36464235  0.22219512     0.36770
N1847       N  0.88089786  0.17745904  0.30279108    -0.43470
N1848       N  0.00608741  0.39639930  0.20927716    -0.43470
C1849       C  0.86719679  0.04517919  0.28615412     0.00110
C1850       C  0.88052421  0.02258658  0.26395895    -0.11760
C1851       C  0.87464381  0.02087758  0.22546569     0.02350
C1852       C  0.85738779  0.04412333  0.20842737     0.00030
C1853       C  0.84130019  0.06431171  0.23071905    -0.11700
C1854       C  0.84492769  0.06399057  0.26940610     0.02240
H1855       H  0.89522210  0.00593438  0.27681245     0.15220
H1856       H  0.82705309  0.08136378  0.21788512     0.15220
C1857       C  0.82519540  0.08277546  0.29111519     0.36870
C1858       C  0.88689383  0.99536469  0.20401202     0.36770
N1859       N  0.80812805  0.09629879  0.30892889    -0.43470
N1860       N  0.89683346  0.97504564  0.18682624    -0.43470
C1861       C  0.76536452  0.39128238  0.21865840     0.00110
C1862       C  0.76281451  0.35735074  0.23784376    -0.11760
C1863       C  0.76119829  0.35561579  0.27672286     0.02350
C1864       C  0.76248213  0.38849815  0.29762725     0.00030
C1865       C  0.76072520  0.42043963  0.27856881    -0.11700
C1866       C  0.76164239  0.42192185  0.23957871     0.02240
H1867       H  0.76343522  0.33252380  0.22248079     0.15220
H1868       H  0.76097158  0.44552746  0.29422400     0.15220
C1869       C  0.75976372  0.45598245  0.22245918     0.36870
C1870       C  0.75967305  0.32025709  0.29461620     0.36770
N1871       N  0.75677270  0.98278386  0.20917311    -0.43470
N1872       N  0.75885643  0.29216881  0.30906051    -0.43470
O1873       O  0.80470412  0.96912251  0.94959463    -0.80620
O1874       O  0.66193829  0.49313772  0.99600241    -0.65310
O1875       O  0.77408527  0.51686330  0.97598356    -1.11910
C1876       C  0.75906899  0.94322405  0.08936683     1.06270
O1877       O  0.68940624  0.52019832  0.05068975    -0.78520
O1878       O  0.76085608  0.52797737  0.09164257    -0.66100
Ni1879     Ni  0.78797686  0.50682915  0.92771472     1.34870
C1880       C  0.79839934  0.54087680  0.07995492     0.85000
O1881       O  0.71571791  0.53436463  0.94179747    -0.79060
O1882       O  0.77067919  0.54428856  0.90543937    -0.89330
C1883       C  0.65808530  0.50617467  0.02729371     0.84580
O1884       O  0.73411429  0.96482847  0.90781818    -0.67530
O1885       O  0.72677145  0.94833735  0.09659382    -0.86820
C1886       C  0.69726589  0.95190519  0.92108966     0.85410
C1887       C  0.73743815  0.54797069  0.91226581     1.06970
H1888       H  0.70450217  0.94539112  0.02073583     0.38780
O1889       O  0.72240411  0.97420018  0.02566762    -1.09480
O1890       O  0.80550722  0.53475236  0.04668896    -0.66130
Ni1891     Ni  0.77826450  0.98572118  0.01705083     1.26350
O1892       O  0.69275550  0.95513351  0.95553866    -0.66360
O1893       O  0.78006997  0.95534161  0.05926475    -0.78650
C1894       C  0.83629258  0.98212690  0.97273090     0.84790
O1895       O  0.83354394  0.99562177  0.00423589    -0.65830
Ni1896     Ni  0.70784565  0.98417712  0.07334866     1.27450
Ni1897     Ni  0.71791931  0.50460479  0.98427129     1.26060
H1898       H  0.79190882  0.54561819  0.98124358     0.39330
O1899       O  0.66551775  0.69507732  0.94521673    -0.80620
O1900       O  0.82840305  0.82535426  0.00460009    -0.65310
O1901       O  0.74320249  0.72165246  0.97425168    -1.11910
C1902       C  0.68021770  0.73128613  0.08837458     1.06270
O1903       O  0.82653815  0.79329805  0.05616362    -0.78520
O1904       O  0.76286495  0.72478762  0.09161155    -0.66100
Ni1905     Ni  0.72095553  0.71257147  0.92484156     1.34870
C1906       C  0.73862892  0.68979083  0.07752001     0.85000
O1907       O  0.82026073  0.77769925  0.94689345    -0.79060
O1908       O  0.77712692  0.73261138  0.90333696    -0.89330
C1909       C  0.84361691  0.82538234  0.03638124     0.84580
O1910       O  0.72610702  0.76424572  0.91145745    -0.67530
O1911       O  0.71638474  0.76120384  0.09821129    -0.86820
C1912       C  0.75104363  0.79933412  0.92471651     0.85410
C1913       C  0.81298626  0.76259145  0.91403717     1.06970
H1914       H  0.73721690  0.78741774  0.02400192     0.38780
O1915       O  0.74858221  0.76872947  0.02783754    -1.09480
O1916       O  0.72728282  0.68563056  0.04337732    -0.66130
Ni1917     Ni  0.70610673  0.71638372  0.01482826     1.26350
O1918       O  0.76433504  0.80443843  0.95842475    -0.66360
O1919       O  0.67245312  0.71386701  0.05627027    -0.78650
C1920       C  0.64873993  0.66350016  0.96553676     0.84790
O1921       O  0.66301751  0.66475752  0.99801885    -0.65830
Ni1922     Ni  0.77164948  0.77784309  0.07692355     1.27450
Ni1923     Ni  0.78560338  0.77406951  0.98751101     1.26060
H1924       H  0.75466816  0.70308462  0.97819317     0.39330
O1925       O  0.82199400  0.01065951  0.55883514    -0.80620
O1926       O  0.66476009  0.00011998  0.49362403    -0.65310
O1927       O  0.74253299  0.96696463  0.52926572    -1.11910
C1928       C  0.81075069  0.52094009  0.41456713     1.06270
O1929       O  0.66305087  0.96460852  0.44393288    -0.78520
O1930       O  0.71953677  0.94290241  0.41381203    -0.66100
Ni1931     Ni  0.76537753  0.98096745  0.57817238     1.34870
C1932       C  0.74282942  0.92920918  0.42789393     0.85000
O1933       O  0.66808941  0.96220530  0.55506325    -0.79060
O1934       O  0.70888341  0.95348952  0.59894761    -0.89330
C1935       C  0.64793886  0.98349724  0.46291496     0.84580
O1936       O  0.76352832  0.53030839  0.58908529    -0.67530
O1937       O  0.77568288  0.51931219  0.40302222    -0.86820
C1938       C  0.74169066  0.54510678  0.57402157     0.85410
C1939       C  0.67422072  0.95307655  0.58798519     1.06970
H1940       H  0.75599098  0.53661485  0.47484135     0.38780
O1941       O  0.74204599  0.50711029  0.47279317    -1.09480
O1942       O  0.75708509  0.93800733  0.46139821    -0.66130
Ni1943     Ni  0.78082026  0.48976135  0.48869134     1.26350
O1944       O  0.72873875  0.53682698  0.54020316    -0.66360
O1945       O  0.81714288  0.51296648  0.44778550    -0.78650
C1946       C  0.83848751  0.99382183  0.53864913     0.84790
O1947       O  0.82045478  0.97526957  0.50892436    -0.65830
Ni1948     Ni  0.71923912  0.49302448  0.42395482     1.27450
Ni1949     Ni  0.70394220  0.98474880  0.51362009     1.26060
H1950       H  0.72863115  0.93761259  0.52701326     0.39330
O1951       O  0.50397598  0.81301605  0.94195391    -0.80620
O1952       O  0.99893109  0.66210843  0.00251411    -0.65310
O1953       O  0.96600270  0.74104283  0.97813159    -1.11910
C1954       C  0.56286442  0.81637568  0.07824397     1.06270
O1955       O  0.98356655  0.67041664  0.06016884    -0.78520
O1956       O  0.97832759  0.73495781  0.09544067    -0.66100
Ni1957     Ni  0.96619793  0.75694376  0.92811054     1.34870
C1958       C  0.95872858  0.75378342  0.08380045     0.85000
O1959       O  0.94382635  0.66336578  0.95223966    -0.79060
O1960       O  0.92862665  0.70122420  0.91199907    -0.89330
C1961       C  0.99170402  0.65021253  0.03559022     0.84580
O1962       O  0.51185568  0.75024868  0.90730640    -0.67530
O1963       O  0.56122372  0.78262359  0.08847842    -0.86820
C1964       C  0.53084158  0.73076930  0.91871657     0.85410
C1965       C  0.92596939  0.66719082  0.92244234     1.06970
H1966       H  0.55022129  0.75204205  0.01445532     0.38780
O1967       O  0.52159538  0.74167414  0.02334319    -1.09480
O1968       O  0.96004613  0.76407442  0.04991003    -0.66130
Ni1969     Ni  0.50436302  0.78092934  0.01351195     1.26350
O1970       O  0.52709794  0.71767115  0.95185335    -0.66360
O1971       O  0.54334824  0.81940203  0.04926767    -0.78650
C1972       C  0.49597936  0.83268243  0.96708096     0.84790
O1973       O  0.48756241  0.81976093  0.99970980    -0.65830
Ni1974     Ni  0.52248506  0.72657221  0.07344455     1.27450
Ni1975     Ni  0.98281867  0.70151228  0.98820188     1.26060
H1976       H  0.93725488  0.73077262  0.98667862     0.39330
O1977       O  0.98263219  0.66861154  0.44348170    -0.80620
O1978       O  0.97826912  0.81446369  0.50326750    -0.65310
O1979       O  0.52022353  0.74408678  0.47400285    -1.11910
C1980       C  0.95525102  0.67536600  0.58764259     1.06270
O1981       O  0.01120138  0.81710241  0.55658272    -0.78520
O1982       O  0.53345970  0.76321170  0.59099998    -0.66100
Ni1983     Ni  0.51169695  0.72346258  0.42468733     1.34870
C1984       C  0.55062464  0.74309365  0.57776181     0.85000
O1985       O  0.52306058  0.81460833  0.44467221    -0.79060
O1986       O  0.53884160  0.77825287  0.40350186    -0.89330
C1987       C  0.99326466  0.83123917  0.53433720     0.84580
O1988       O  0.95904434  0.72134145  0.41064774    -0.67530
O1989       O  0.95318089  0.70780933  0.59695742    -0.86820
C1990       C  0.94171006  0.74128571  0.42382242     0.85410
C1991       C  0.53610909  0.81038140  0.41274844     1.06970
H1992       H  0.94260391  0.72697080  0.52261982     0.38780
O1993       O  0.97301823  0.74170613  0.52686352    -1.09480
O1994       O  0.54666472  0.73335102  0.54344517    -0.66130
Ni1995     Ni  0.99462217  0.70655741  0.51439843     1.26350
O1996       O  0.94602972  0.75168675  0.45793316    -0.66360
O1997       O  0.96897623  0.67111940  0.55601139    -0.78650
C1998       C  0.99887437  0.65366516  0.46660912     0.84790
O1999       O  0.01419461  0.67074544  0.49754160    -0.65830
Ni2000     Ni  0.98154594  0.76253992  0.57601547     1.27450
Ni2001     Ni  0.49828152  0.77911593  0.48642761     1.26060
H2002       H  0.55063977  0.75883546  0.47838484     0.39330
C2003       C  0.54398996  0.62253699  0.40316139     0.03400
C2004       C  0.54011993  0.62581200  0.44170232    -0.12750
C2005       C  0.00117674  0.61737234  0.45526528     0.00900
C2006       C  0.96491365  0.58846884  0.43751959    -0.11280
C2007       C  0.96540990  0.57794067  0.39998860     0.03390
C2008       C  0.00583631  0.59636421  0.38232995    -0.10700
H2009       H  0.56642441  0.64633813  0.45919745     0.08990
H2010       H  0.93582691  0.58346507  0.45055443     0.06520
H2011       H  0.00716792  0.59216689  0.35280817     0.06360
C2012       C  0.77165955  0.89258718  0.33851103     0.03400
C2013       C  0.74831013  0.90287650  0.36386421    -0.12750
C2014       C  0.75871584  0.90741458  0.40237627     0.00900
C2015       C  0.79172269  0.89966348  0.41463061    -0.11280
C2016       C  0.81734451  0.89191429  0.38934606     0.03390
C2017       C  0.80709102  0.88925698  0.35148353    -0.10700
H2018       H  0.72311362  0.90865034  0.35336091     0.08990
H2019       H  0.79769145  0.90091173  0.44419317     0.06520
H2020       H  0.82699100  0.88489902  0.33156384     0.06360
C2021       C  0.87491883  0.54643707  0.32670707     0.03400
C2022       C  0.84033459  0.53375436  0.35047513    -0.12750
C2023       C  0.84603955  0.53148888  0.38848707     0.00900
C2024       C  0.88551760  0.53693999  0.40163740    -0.11280
C2025       C  0.92249775  0.55626096  0.38007977     0.03390
C2026       C  0.91642477  0.55961075  0.34168093    -0.10700
H2027       H  0.80866210  0.52422945  0.33926469     0.08990
H2028       H  0.88771030  0.52822358  0.42986005     0.06520
H2029       H  0.94332039  0.57286267  0.32344891     0.06360
C2030       C  0.89064367  0.84310041  0.40304870     0.03400
C2031       C  0.86537532  0.85783716  0.38391821    -0.12750
C2032       C  0.85324349  0.88466324  0.40276326     0.00900
C2033       C  0.86839178  0.89578434  0.43959275    -0.11280
C2034       C  0.87575349  0.86768917  0.45928435     0.03390
C2035       C  0.90078308  0.85447865  0.44078917    -0.10700
H2036       H  0.85274626  0.84591530  0.35649565     0.08990
H2037       H  0.86206523  0.91692961  0.45546369     0.06520
H2038       H  0.91930607  0.84421053  0.45736081     0.06360
C2039       C  0.92353058  0.78478416  0.33468423     0.03400
C2040       C  0.93106941  0.75956545  0.35921721    -0.12750
C2041       C  0.92245125  0.75876987  0.39727176     0.00900
C2042       C  0.90562684  0.78355508  0.41031409    -0.11280
C2043       C  0.90124851  0.81191788  0.38690874     0.03390
C2044       C  0.90931149  0.81143119  0.34891005    -0.10700
H2045       H  0.94624961  0.74243209  0.34887923     0.08990
H2046       H  0.89811501  0.78197253  0.43942978     0.06520
H2047       H  0.90546977  0.83239033  0.33042698     0.06360
C2048       C  0.57231261  0.87749797  0.32527096     0.03400
C2049       C  0.56257624  0.84445931  0.34967864    -0.12750
C2050       C  0.54667545  0.84432517  0.38532972     0.00900
C2051       C  0.53930041  0.87715072  0.39500316    -0.11280
C2052       C  0.55552882  0.91338390  0.37393391     0.03390
C2053       C  0.56861900  0.91157495  0.33788898    -0.10700
H2054       H  0.56695320  0.81890495  0.34075859     0.08990
H2055       H  0.52344928  0.87567009  0.42073682     0.06520
H2056       H  0.57725341  0.93730330  0.31983520     0.06360
C2057       C  0.61480223  0.52972116  0.39279543     0.03400
C2058       C  0.58598206  0.99246209  0.37422341    -0.12750
C2059       C  0.57007484  0.95422011  0.39318753     0.00900
C2060       C  0.58069511  0.95556418  0.43109170    -0.11280
C2061       C  0.61472469  0.98980854  0.44589155     0.03390
C2062       C  0.62893186  0.52678646  0.42873862    -0.10700
H2063       H  0.57804615  0.99301231  0.34522375     0.08990
H2064       H  0.57211301  0.92814086  0.44673564     0.06520
H2065       H  0.65717004  0.55187284  0.44102695     0.06360
C2066       C  0.61863250  0.70351153  0.33585473     0.03400
C2067       C  0.58478649  0.66716525  0.34906444    -0.12750
C2068       C  0.58427938  0.65518445  0.38602367     0.00900
C2069       C  0.62059232  0.67964644  0.40860755    -0.11280
C2070       C  0.65301909  0.71774615  0.39734474     0.03390
C2071       C  0.65230907  0.72903331  0.36026850    -0.10700
H2072       H  0.55887623  0.64853405  0.33020540     0.08990
H2073       H  0.62465318  0.66890927  0.43529001     0.06520
H2074       H  0.67820495  0.75705204  0.35014890     0.06360
C2075       C  0.67599561  0.61588640  0.32341824     0.03400
C2076       C  0.69976382  0.64791129  0.34877021    -0.12750
C2077       C  0.69263531  0.64234346  0.38681760     0.00900
C2078       C  0.65852526  0.60578466  0.39858692    -0.11280
C2079       C  0.63822069  0.57114857  0.37503077     0.03390
C2080       C  0.64649010  0.57693613  0.33680026    -0.10700
H2081       H  0.72230505  0.67773519  0.33880327     0.08990
H2082       H  0.64911566  0.60356482  0.42726037     0.06520
H2083       H  0.63095977  0.55149583  0.31749441     0.06360
C2084       C  0.77681449  0.89600284  0.17826374     0.03400
C2085       C  0.80876171  0.88656401  0.16566890    -0.12750
C2086       C  0.82504454  0.89703440  0.12960369     0.00900
C2087       C  0.81119715  0.92015361  0.10824836    -0.11280
C2088       C  0.77510106  0.92372466  0.11707705     0.03390
C2089       C  0.75772894  0.91130141  0.15241806    -0.10700
H2090       H  0.82148835  0.87216139  0.18426171     0.08990
H2091       H  0.82810056  0.93467091  0.08341311     0.06520
H2092       H  0.73053397  0.91486848  0.16015749     0.06360
C2093       C  0.86240749  0.55308212  0.16832883     0.03400
C2094       C  0.82851386  0.54899121  0.14503277    -0.12750
C2095       C  0.83506995  0.55808132  0.10694964     0.00900
C2096       C  0.87664169  0.57392507  0.09363912    -0.11280
C2097       C  0.91059145  0.57676015  0.11655662     0.03390
C2098       C  0.90288711  0.56689539  0.15382832    -0.10700
H2099       H  0.79683252  0.53643185  0.15603756     0.08990
H2100       H  0.88167419  0.58259851  0.06481089     0.06520
H2101       H  0.92839611  0.56936019  0.17200877     0.06360
C2102       C  0.90064054  0.85060428  0.11005711     0.03400
C2103       C  0.90690827  0.86091569  0.07251948    -0.12750
C2104       C  0.87435626  0.86350068  0.05392387     0.00900
C2105       C  0.85409218  0.88184317  0.07237361    -0.11280
C2106       C  0.85404989  0.88301712  0.11165363     0.03390
C2107       C  0.87551125  0.86419410  0.13060602    -0.10700
H2108       H  0.92805383  0.85448537  0.05597128     0.08990
H2109       H  0.83015011  0.88522235  0.05623841     0.06520
H2110       H  0.87086910  0.85837318  0.15993276     0.06360
C2111       C  0.93484032  0.79063770  0.17530787     0.03400
C2112       C  0.94277100  0.76595501  0.15001279    -0.12750
C2113       C  0.93803595  0.76909046  0.11136618     0.00900
C2114       C  0.92153497  0.79473160  0.09920019    -0.11280
C2115       C  0.91438396  0.82059275  0.12407240     0.03390
C2116       C  0.92034998  0.81727639  0.16194274    -0.10700
H2117       H  0.95399768  0.74548445  0.16026581     0.08990
H2118       H  0.91526690  0.79476265  0.06978390     0.06520
H2119       H  0.91394241  0.83568710  0.18149090     0.06360
C2120       C  0.59430956  0.88181406  0.16577805     0.03400
C2121       C  0.58898368  0.85008799  0.14104401    -0.12750
C2122       C  0.58429734  0.85348125  0.10266911     0.00900
C2123       C  0.59184797  0.89134675  0.08854650    -0.11280
C2124       C  0.59806979  0.92441667  0.11194394     0.03390
C2125       C  0.59806610  0.91859019  0.15065588    -0.10700
H2126       H  0.58704786  0.82209259  0.15129526     0.08990
H2127       H  0.59209283  0.89397553  0.05874149     0.06520
H2128       H  0.60019668  0.94244041  0.16920663     0.06360
C2129       C  0.63600046  0.53974409  0.09529413     0.03400
C2130       C  0.62256689  0.53652497  0.05804378    -0.12750
C2131       C  0.61690485  0.00207798  0.03875982     0.00900
C2132       C  0.59404690  0.96561890  0.05749642    -0.11280
C2133       C  0.60444701  0.96428890  0.09539839     0.03390
C2134       C  0.62680354  0.00278367  0.11433082    -0.10700
H2135       H  0.62925174  0.56347041  0.04215899     0.08990
H2136       H  0.57649141  0.93843654  0.04070027     0.06520
H2137       H  0.63937082  0.00420823  0.14211105     0.06360
C2138       C  0.61368978  0.70657802  0.17602073     0.03400
C2139       C  0.64681036  0.72862920  0.15105681    -0.12750
C2140       C  0.64535594  0.71264351  0.11542508     0.00900
C2141       C  0.61097495  0.67472204  0.10588774    -0.11280
C2142       C  0.57318491  0.65797143  0.12572728     0.03390
C2143       C  0.57559005  0.67318518  0.16210563    -0.10700
H2144       H  0.67433290  0.75670356  0.15987192     0.08990
H2145       H  0.61367633  0.65856865  0.08202933     0.06520
H2146       H  0.54896185  0.65817703  0.18028578     0.06360
C2147       C  0.69006420  0.62698480  0.16428598     0.03400
C2148       C  0.71740305  0.65940931  0.14151871    -0.12750
C2149       C  0.71854317  0.65355041  0.10276283     0.00900
C2150       C  0.69284672  0.61395652  0.08800865    -0.11280
C2151       C  0.66534930  0.58115502  0.11084886     0.03390
C2152       C  0.66520276  0.58819750  0.14872218    -0.10700
H2153       H  0.73601757  0.68950729  0.15368186     0.08990
H2154       H  0.69402174  0.60916704  0.05850088     0.06520
H2155       H  0.64476275  0.56335059  0.16643482     0.06360
C2156       C  0.53220806  0.62835881  0.10602929     0.03400
C2157       C  0.53182376  0.62531216  0.06671413    -0.12750
C2158       C  0.99426157  0.61390541  0.04707439     0.00900
C2159       C  0.95744080  0.58542089  0.06325034    -0.11280
C2160       C  0.95369407  0.58935009  0.10151714     0.03390
C2161       C  0.99189667  0.61067853  0.12328996    -0.10700
H2162       H  0.55977503  0.64305843  0.05067764     0.08990
H2163       H  0.92980780  0.56925613  0.04527656     0.06520
H2164       H  0.99003936  0.61579202  0.15248993     0.06360
O2165       O  0.68176917  0.66890388  0.55675807    -0.80620
O2166       O  0.83314620  0.81430409  0.50023212    -0.65310
O2167       O  0.72046220  0.74504852  0.52748567    -1.11910
C2168       C  0.71651779  0.67566865  0.41434590     1.06270
O2169       O  0.80378869  0.81770637  0.44695073    -0.78520
O2170       O  0.72659212  0.76395463  0.41081598    -0.66100
Ni2171     Ni  0.70796668  0.72449317  0.57643234     1.34870
C2172       C  0.68991759  0.74136853  0.42347009     0.85000
O2173       O  0.78635864  0.81538054  0.55634433    -0.79060
O2174       O  0.73535710  0.77971832  0.59769940    -0.89330
C2175       C  0.83560497  0.83195472  0.46988501     0.84580
O2176       O  0.75872397  0.72303859  0.59274752    -0.67530
O2177       O  0.75045148  0.70786503  0.40487171    -0.86820
C2178       C  0.79549467  0.74504377  0.58007546     0.85410
C2179       C  0.76958256  0.81162476  0.58812099     1.06970
H2180       H  0.78158170  0.72683278  0.47948146     0.38780
O2181       O  0.76574925  0.74154101  0.47533069    -1.09480
O2182       O  0.68526602  0.73467187  0.45810414    -0.66130
Ni2183     Ni  0.70910912  0.70709786  0.48728971     1.26350
O2184       O  0.80037457  0.75148787  0.54534561    -0.66360
O2185       O  0.69988813  0.67118655  0.44629784    -0.78650
C2186       C  0.65116318  0.65378039  0.53253410     0.84790
O2187       O  0.65347082  0.67199837  0.50261835    -0.65830
Ni2188     Ni  0.77769202  0.76263957  0.42652618     1.27450
Ni2189     Ni  0.77719081  0.77938658  0.51560921     1.26060
H2190       H  0.70481076  0.75988351  0.52308962     0.39330
C2191       C  0.79410985  0.84554994  0.61512317     0.03400
C2192       C  0.83205544  0.87893517  0.60371485    -0.12750
C2193       C  0.85339464  0.91470590  0.62561209     0.00900
C2194       C  0.84359659  0.91155638  0.66353897    -0.11280
C2195       C  0.81106106  0.87462992  0.67756142     0.03390
C2196       C  0.78388148  0.84351425  0.65261716    -0.10700
H2197       H  0.84381442  0.87806266  0.57642532     0.08990
H2198       H  0.86064476  0.93725219  0.68227980     0.06520
H2199       H  0.75652561  0.81677326  0.66265043     0.06360
C2200       C  0.86628606  0.78368090  0.66818055     0.03400
C2201       C  0.83225196  0.75808681  0.64399107    -0.12750
C2202       C  0.83235578  0.76830020  0.60631666     0.00900
C2203       C  0.86590815  0.80527482  0.59430206    -0.11280
C2204       C  0.90255086  0.82894488  0.61660270     0.03390
C2205       C  0.90158660  0.81801813  0.65384272    -0.10700
H2206       H  0.80569614  0.73087789  0.65455480     0.08990
H2207       H  0.86313316  0.81562718  0.56697221     0.06520
H2208       H  0.92848932  0.83589262  0.67204760     0.06360
C2209       C  0.87873361  0.95495907  0.60637715     0.03400
C2210       C  0.86767582  0.95639542  0.56888692    -0.12750
C2211       C  0.87611282  0.99286686  0.55291807     0.00900
C2212       C  0.90675758  0.52895218  0.56840280    -0.11280
C2213       C  0.91811560  0.53072645  0.60613255     0.03390
C2214       C  0.90455933  0.49295357  0.62513159    -0.10700
H2215       H  0.84320002  0.92979951  0.55463583     0.08990
H2216       H  0.91142545  0.55603851  0.55373782     0.06520
H2217       H  0.91171668  0.49322282  0.65441454     0.06360
C2218       C  0.91491036  0.60726501  0.67408025     0.03400
C2219       C  0.92678556  0.64106229  0.65018370    -0.12750
C2220       C  0.94288612  0.64094978  0.61465585     0.00900
C2221       C  0.94871680  0.60735379  0.60470053    -0.11280
C2222       C  0.93115448  0.57101808  0.62542637     0.03390
C2223       C  0.91656235  0.57235398  0.66095914    -0.10700
H2224       H  0.92400232  0.66739382  0.65944407     0.08990
H2225       H  0.96425617  0.60820688  0.57890581     0.06520
H2226       H  0.90616744  0.54601894  0.67852255     0.06360
C2227       C  0.56961189  0.72497810  0.60423334     0.03400
C2228       C  0.56303593  0.72561443  0.64267976    -0.12750
C2229       C  0.56973230  0.69960467  0.66707404     0.00900
C2230       C  0.58353290  0.67268979  0.65269728    -0.11280
C2231       C  0.58885325  0.67026082  0.61446931     0.03390
C2232       C  0.58418223  0.69842005  0.59090453    -0.10700
H2233       H  0.55009125  0.74452100  0.65349682     0.08990
H2234       H  0.58892461  0.65274023  0.67124292     0.06520
H2235       H  0.58999999  0.69871225  0.56150801     0.06360
C2236       C  0.59711982  0.63745662  0.59832606     0.03400
C2237       C  0.58550949  0.62585631  0.56088508    -0.12750
C2238       C  0.61213981  0.61582095  0.54103513     0.00900
C2239       C  0.62131436  0.58774433  0.55867266    -0.11280
C2240       C  0.63482367  0.59594426  0.59618089     0.03390
C2241       C  0.62250714  0.62204123  0.61637658    -0.10700
H2242       H  0.56573057  0.63550578  0.54538298     0.08990
H2243       H  0.62832191  0.56811668  0.54127622     0.06520
H2244       H  0.63520994  0.63302958  0.64396007     0.06360
C2245       C  0.72584072  0.56762243  0.59865942     0.03400
C2246       C  0.69392432  0.57663066  0.58546482    -0.12750
C2247       C  0.66851251  0.58556935  0.61008462     0.00900
C2248       C  0.67701835  0.58653305  0.64817313    -0.11280
C2249       C  0.71194786  0.58283546  0.66193481     0.03390
C2250       C  0.73550943  0.57217589  0.63726444    -0.10700
H2251       H  0.68881131  0.57553546  0.55580638     0.08990
H2252       H  0.65671983  0.59083751  0.66767223     0.06520
H2253       H  0.76041813  0.56629479  0.64833860     0.06360
C2254       C  0.60882580  0.92602392  0.67554517     0.03400
C2255       C  0.56862059  0.91785396  0.66067861    -0.12750
C2256       C  0.56407772  0.92441730  0.62275472     0.00900
C2257       C  0.60172372  0.94296749  0.60206213    -0.11280
C2258       C  0.63916548  0.94293258  0.61435920     0.03390
C2259       C  0.64312636  0.93597530  0.65188448    -0.10700
H2260       H  0.54150889  0.90611684  0.67868998     0.08990
H2261       H  0.60120645  0.95500372  0.57489410     0.06520
H2262       H  0.67338253  0.94044383  0.66309839     0.06360
C2263       C  0.94337998  0.85947174  0.59899143     0.03400
C2264       C  0.94760004  0.85291581  0.56118969    -0.12750
C2265       C  0.98722584  0.86495259  0.54717487     0.00900
C2266       C  0.52239189  0.89591124  0.56434366    -0.11280
C2267       C  0.52161233  0.90525276  0.60213910     0.03390
C2268       C  0.98112793  0.88684922  0.61953750    -0.10700
H2269       H  0.92191015  0.82910303  0.54521213     0.08990
H2270       H  0.55171542  0.90337672  0.55049059     0.06520
H2271       H  0.97950667  0.89196936  0.64884491     0.06360
C2272       C  0.96020769  0.86938170  0.89996878     0.03400
C2273       C  0.96002210  0.86412758  0.93870759    -0.12750
C2274       C  0.49681381  0.87065486  0.95697070     0.00900
C2275       C  0.53532726  0.89875435  0.94330191    -0.11280
C2276       C  0.53943398  0.90595571  0.90491380     0.03390
C2277       C  0.50069031  0.89150304  0.88319755    -0.10700
H2278       H  0.93143339  0.84368837  0.95293029     0.08990
H2279       H  0.56184859  0.90458064  0.96140006     0.06520
H2280       H  0.50137524  0.89520258  0.85358160     0.06360
C2281       C  0.71502760  0.59060721  0.82267019     0.03400
C2282       C  0.73595538  0.57727188  0.84853677    -0.12750
C2283       C  0.72073181  0.56702823  0.88476111     0.00900
C2284       C  0.68518500  0.57114165  0.89448974    -0.11280
C2285       C  0.66968721  0.59260558  0.87268707     0.03390
C2286       C  0.68375278  0.60074900  0.83578409    -0.10700
H2287       H  0.76247413  0.57294468  0.84005592     0.08990
H2288       H  0.66953680  0.55760808  0.92002450     0.06520
H2289       H  0.66943091  0.61337847  0.81687100     0.06360
C2290       C  0.65885699  0.93701573  0.89589324     0.03400
C2291       C  0.66192642  0.93612832  0.85705896    -0.12750
C2292       C  0.62680974  0.92930577  0.83419656     0.00900
C2293       C  0.58746382  0.91917206  0.84984225    -0.11280
C2294       C  0.58284368  0.91977530  0.88826578     0.03390
C2295       C  0.61998934  0.93094090  0.91068778    -0.10700
H2296       H  0.69191435  0.94287700  0.84469517     0.08990
H2297       H  0.56091269  0.91153514  0.83103465     0.06520
H2298       H  0.62012833  0.93655825  0.93994530     0.06360
C2299       C  0.79631736  0.85929928  0.83628149     0.03400
C2300       C  0.76917352  0.82768887  0.85980267    -0.12750
C2301       C  0.77004388  0.83452414  0.89863115     0.00900
C2302       C  0.79726605  0.87391051  0.91263031    -0.11280
C2303       C  0.82555893  0.90531437  0.88928663     0.03390
C2304       C  0.82451517  0.89748241  0.85141838    -0.10700
H2305       H  0.74926772  0.79753241  0.84804649     0.08990
H2306       H  0.79694451  0.87948917  0.94209340     0.06520
H2307       H  0.84602816  0.92130652  0.83331419     0.06360
C2308       C  0.88213935  0.79321856  0.82777346     0.03400
C2309       C  0.91853141  0.82817997  0.84201115    -0.12750
C2310       C  0.91944058  0.84194615  0.87866740     0.00900
C2311       C  0.88118885  0.82285051  0.89814089    -0.11280
C2312       C  0.84813238  0.78425636  0.88756260     0.03390
C2313       C  0.84841204  0.76985316  0.85175820    -0.10700
H2314       H  0.94539485  0.84485116  0.82442843     0.08990
H2315       H  0.87797268  0.83720913  0.92317280     0.06520
H2316       H  0.82159434  0.74173383  0.84187299     0.06360
C2317       C  0.85611664  0.94630894  0.90438756     0.03400
C2318       C  0.86540804  0.98300172  0.88511245    -0.12750
C2319       C  0.88837664  0.52151140  0.90365393     0.00900
C2320       C  0.89996474  0.52072758  0.94129389    -0.11280
C2321       C  0.87672288  0.98478324  0.96065641     0.03390
C2322       C  0.86976614  0.94968519  0.94164241    -0.10700
H2323       H  0.85212978  0.98136295  0.85758138     0.08990
H2324       H  0.91816488  0.54828582  0.95750805     0.06520
H2325       H  0.86265102  0.92278711  0.95776892     0.06360
C2326       C  0.90532129  0.63072962  0.89730050     0.03400
C2327       C  0.90139725  0.63470881  0.85883899    -0.12750
C2328       C  0.89626910  0.60316052  0.83391465     0.00900
C2329       C  0.89316069  0.56660938  0.84868412    -0.11280
C2330       C  0.89329665  0.56069818  0.88732019     0.03390
C2331       C  0.89789253  0.59285875  0.91100994    -0.10700
H2332       H  0.90371785  0.66289612  0.84859244     0.08990
H2333       H  0.89136816  0.54305765  0.82989601     0.06520
H2334       H  0.89673218  0.58946966  0.94077739     0.06360
C2335       C  0.56061999  0.70001554  0.82693586     0.03400
C2336       C  0.57457187  0.67273220  0.84006195    -0.12750
C2337       C  0.57916865  0.66794065  0.87795617     0.00900
C2338       C  0.57078486  0.69263076  0.90317644    -0.11280
C2339       C  0.55384004  0.71796489  0.89133275     0.03390
C2340       C  0.55063877  0.72279952  0.85278482    -0.10700
H2341       H  0.58134575  0.65473392  0.82031308     0.08990
H2342       H  0.57610965  0.69169309  0.93265701     0.06520
H2343       H  0.53851908  0.74276713  0.84318421     0.06360
C2344       C  0.64033316  0.60631395  0.89056464     0.03400
C2345       C  0.63996314  0.60746217  0.92988937    -0.12750
C2346       C  0.61868768  0.62488116  0.94819278     0.00900
C2347       C  0.58583199  0.62656355  0.92914574    -0.11280
C2348       C  0.59273547  0.63765258  0.89176249     0.03390
C2349       C  0.61860141  0.62479857  0.87144037    -0.10700
H2350       H  0.66427284  0.60500155  0.94627441     0.08990
H2351       H  0.56382170  0.63198859  0.94543354     0.06520
H2352       H  0.62365793  0.63106680  0.84221340     0.06360
C2353       C  0.61619510  0.92750983  0.71603986     0.00110
C2354       C  0.60980669  0.95595261  0.73678246    -0.11760
C2355       C  0.61666303  0.95931330  0.77512934     0.02350
C2356       C  0.62966791  0.93342296  0.79344660     0.00030
C2357       C  0.63884460  0.90690188  0.77247193    -0.11700
C2358       C  0.63205718  0.90362391  0.73389498     0.02180
H2359       H  0.59937744  0.97559492  0.72290999     0.15220
H2360       H  0.64943808  0.88749433  0.78642369     0.15220
C2361       C  0.63969671  0.87433186  0.71352662     0.36870
C2362       C  0.60947031  0.98912147  0.79521951     0.36770
N2363       N  0.64592706  0.85096669  0.69711203    -0.43470
N2364       N  0.60354895  0.51273603  0.81133138    -0.43470
C2365       C  0.72173113  0.58894042  0.70269316     0.00110
C2366       C  0.72500180  0.55864983  0.72325721    -0.11760
C2367       C  0.72604167  0.55989234  0.76229996     0.02350
C2368       C  0.72349288  0.59203099  0.78175573     0.00030
C2369       C  0.72418827  0.62416504  0.76083366    -0.11700
C2370       C  0.72323269  0.62284711  0.72192503     0.02240
H2371       H  0.72436252  0.53270031  0.70884177     0.15220
H2372       H  0.72396905  0.64988255  0.77489472     0.15220
C2373       C  0.72166741  0.65576142  0.70211264     0.36870
C2374       C  0.72805996  0.52667313  0.78101201     0.36770
N2375       N  0.71916960  0.68092680  0.68521478    -0.43470
N2376       N  0.73076582  0.50025869  0.79543059    -0.43470
C2377       C  0.56085551  0.69954835  0.70750956     0.00110
C2378       C  0.57576639  0.73693663  0.72691666    -0.11760
C2379       C  0.57237523  0.73814228  0.76568894     0.02350
C2380       C  0.55474471  0.70147231  0.78587266     0.00030
C2381       C  0.53559640  0.66426118  0.76596686    -0.11700
C2382       C  0.53850764  0.66289702  0.72741601     0.02240
H2383       H  0.59157603  0.76538408  0.71198670     0.15220
H2384       H  0.51965800  0.63578185  0.78091396     0.15220
C2385       C  0.01896168  0.62320202  0.70949352     0.36870
C2386       C  0.58754211  0.77723682  0.78393928     0.36770
N2387       N  0.00397338  0.59118600  0.69556858    -0.43470
N2388       N  0.59845273  0.80835112  0.79876977    -0.43470
C2389       C  0.90347459  0.60872875  0.71365946     0.00110
C2390       C  0.92916159  0.64354945  0.73518542    -0.11760
C2391       C  0.92518610  0.64384482  0.77383615     0.02350
C2392       C  0.89616500  0.60800250  0.79239708     0.00030
C2393       C  0.86787060  0.57440495  0.77036302    -0.11700
C2394       C  0.87064536  0.57473956  0.73151307     0.02240
H2395       H  0.95375064  0.67034579  0.72196982     0.15220
H2396       H  0.84358968  0.54744437  0.78361252     0.15220
C2397       C  0.83906339  0.53988962  0.71078894     0.36870
C2398       C  0.95123864  0.68181602  0.79294711     0.36770
N2399       N  0.81379550  0.51188042  0.69427014    -0.43470
N2400       N  0.97085442  0.71310371  0.80757927    -0.43470
C2401       C  0.87666410  0.78339017  0.78726404     0.00110
C2402       C  0.83796592  0.77579635  0.77008644    -0.11760
C2403       C  0.83250081  0.77257401  0.73149343     0.02350
C2404       C  0.86610582  0.77642598  0.70889597     0.00030
C2405       C  0.90352791  0.78040191  0.72625977    -0.11700
C2406       C  0.90929658  0.78438806  0.76494293     0.02240
H2407       H  0.81259174  0.77508572  0.78676045     0.15220
H2408       H  0.92934502  0.78254387  0.70933461     0.15220
C2409       C  0.94944868  0.79073213  0.78062081     0.36870
C2410       C  0.79322160  0.76875649  0.71637584     0.36770
N2411       N  0.98199336  0.79666109  0.79302889    -0.43470
N2412       N  0.76114079  0.76549732  0.70547917    -0.43470
C2413       C  0.80657114  0.86759907  0.71816434     0.00110
C2414       C  0.76654364  0.85366601  0.73429716    -0.11760
C2415       C  0.76157747  0.84714867  0.77264923     0.02350
C2416       C  0.79692062  0.85438597  0.79545691     0.00030
C2417       C  0.83627368  0.86577207  0.77896625    -0.11700
C2418       C  0.84144067  0.87252418  0.74081019     0.02240
H2419       H  0.73940447  0.84907532  0.71708597     0.15220
H2420       H  0.86357415  0.87108698  0.79634440     0.15220
C2421       C  0.88289021  0.88435171  0.72576943     0.36870
C2422       C  0.72069964  0.83567305  0.78840835     0.36770
N2423       N  0.91624338  0.89408079  0.71396413    -0.43470
N2424       N  0.68817925  0.82644151  0.80166494    -0.43470
C2425       C  0.68111436  0.62343305  0.28286365     0.00110
C2426       C  0.64448925  0.61200343  0.26076107    -0.11760
C2427       C  0.64701800  0.61624524  0.22221884     0.02350
C2428       C  0.68698249  0.63180532  0.20488197     0.00030
C2429       C  0.72388509  0.64589879  0.22714252    -0.11700
C2430       C  0.72132505  0.64207667  0.26584399     0.02240
H2431       H  0.61363157  0.59918515  0.27367580     0.15220
H2432       H  0.75463138  0.65795063  0.21415209     0.15220
C2433       C  0.76037046  0.65620504  0.28715452     0.36870
C2434       C  0.60780025  0.60277006  0.20111590     0.36770
N2435       N  0.79156350  0.66830584  0.30457561    -0.43470
N2436       N  0.57611287  0.59112194  0.18447508    -0.43470
C2437       C  0.61985821  0.71283446  0.29563928     0.00110
C2438       C  0.65597444  0.71955496  0.27582751    -0.11760
C2439       C  0.65627080  0.72144827  0.23701345     0.02350
C2440       C  0.61919660  0.71554604  0.21691744     0.00030
C2441       C  0.58437102  0.71235670  0.23713408    -0.11700
C2442       C  0.58441236  0.71103536  0.27603115     0.02240
H2443       H  0.68339746  0.72112130  0.29064310     0.15220
H2444       H  0.55633040  0.70949127  0.22244983     0.15220
C2445       C  0.54734647  0.70702532  0.29507134     0.36870
C2446       C  0.69479274  0.72791798  0.21916449     0.36770
N2447       N  0.51756319  0.70358250  0.31031955    -0.43470
N2448       N  0.72640135  0.73422261  0.20553071    -0.43470
C2449       C  0.58484335  0.87643246  0.28597348     0.00110
C2450       C  0.56153046  0.84085596  0.26463930    -0.11760
C2451       C  0.56635530  0.84042499  0.22607810     0.02350
C2452       C  0.59405651  0.87694977  0.20741241     0.00030
C2453       C  0.62060631  0.91126732  0.22955072    -0.11700
C2454       C  0.61678450  0.91115649  0.26826604     0.02240
H2455       H  0.53792153  0.81347426  0.27788938     0.15220
H2456       H  0.64431670  0.93871717  0.21649840     0.15220
C2457       C  0.64643149  0.94706284  0.28902064     0.36870
C2458       C  0.54215620  0.80162216  0.20746261     0.36770
N2459       N  0.67008291  0.97591441  0.30558126    -0.43470
N2460       N  0.02390087  0.76963223  0.19367254    -0.43470
C2461       C  0.93265894  0.78518096  0.29435918     0.00110
C2462       C  0.95594891  0.82285182  0.27689835    -0.11760
C2463       C  0.96051005  0.82502809  0.23833960     0.02350
C2464       C  0.94044056  0.78899098  0.21619499     0.00030
C2465       C  0.92058196  0.75115513  0.23385452    -0.11700
C2466       C  0.91706725  0.74897924  0.27258797     0.02240
H2467       H  0.97023301  0.85078607  0.29342847     0.15220
H2468       H  0.90586600  0.72326504  0.21728872     0.15220
C2469       C  0.89632320  0.70919727  0.28904172     0.36870
C2470       C  0.98583365  0.86470168  0.22220810     0.36770
N2471       N  0.88091648  0.67749875  0.30276985    -0.43470
N2472       N  0.00611732  0.89646216  0.20929546    -0.43470
C2473       C  0.86721445  0.54519082  0.28615274     0.00110
C2474       C  0.88053848  0.52259260  0.26396149    -0.11760
C2475       C  0.87465864  0.52087875  0.22546797     0.02350
C2476       C  0.85740605  0.54412482  0.20842436     0.00030
C2477       C  0.84132567  0.56432289  0.23071249    -0.11700
C2478       C  0.84495315  0.56400724  0.26940016     0.02240
H2479       H  0.89523165  0.50593801  0.27681862     0.15220
H2480       H  0.82708261  0.58137681  0.21787522     0.15220
C2481       C  0.82522779  0.58280163  0.29110563     0.36870
C2482       C  0.88690272  0.49535759  0.20402028     0.36770
N2483       N  0.80816586  0.59633278  0.30891662    -0.43470
N2484       N  0.89683819  0.47503206  0.18683966    -0.43470
C2485       C  0.76537230  0.89129274  0.21866577     0.00110
C2486       C  0.76282641  0.85736311  0.23785180    -0.11760
C2487       C  0.76120516  0.85562646  0.27673054     0.02350
C2488       C  0.76248125  0.88850584  0.29763424     0.00030
C2489       C  0.76071947  0.92044444  0.27857503    -0.11700
C2490       C  0.76163980  0.92192754  0.23958506     0.02240
H2491       H  0.76345207  0.83253805  0.22248975     0.15220
H2492       H  0.76095862  0.94552928  0.29422967     0.15220
C2493       C  0.75975051  0.95598298  0.22246525     0.36870
C2494       C  0.75968066  0.82026816  0.29462419     0.36770
N2495       N  0.75679545  0.48278833  0.20916722    -0.43470
N2496       N  0.75886362  0.79217956  0.30906824    -0.43470
loop_ 
_geom_bond_atom_site_label_1 
_geom_bond_atom_site_label_2 
_geom_bond_distance 
_geom_bond_site_symmetry_2 
_ccdc_geom_bond_type 
O1           C22   1.285       .  A
O1         Ni631   1.933       .  S
O2           C11   1.260   1_566  A
O2          Ni25   1.892   1_565  S
O3           Ni7   1.898       .  S
O3          Ni25   1.864       .  S
O3         Ni643   1.929   1_546  S
O3           H26   0.966       .  S
C4           O21   1.284       .  A
C4           O13   1.286       .  A
C4          C216   1.494       .  S
O5           C11   1.283       .  A
O5         Ni648   1.930   1_545  S
O6            C8   1.271       .  A
O6         Ni648   1.923   1_545  S
Ni7          O10   1.944       .  S
Ni7         O625   1.933   1_545  S
Ni7         O636   1.935   1_545  S
C8           O18   1.270       .  A
C8          C223   1.493       .  S
O9           C15   1.283       .  A
O9          Ni25   1.914       .  S
O10          C15   1.286       .  A
C11         C883   1.471       .  S
O12          C14   1.270       .  A
O12        Ni631   1.935       .  S
O13         Ni24   1.945       .  S
C14          O20   1.266       .  A
C14         C418   1.499       .  S
C15         C411   1.493       .  S
H16          O17   0.966       .  S
O17         Ni19   1.863       .  S
O17         Ni24   1.887       .  S
O17        Ni649   1.924   1_554  S
O18        Ni643   1.918   1_545  S
Ni19         O23   1.894       .  S
Ni19         O21   1.916       .  S
Ni19        O642   1.918       .  S
Ni19        O627   1.929   1_554  S
O20        Ni649   1.910       .  S
C22          O23   1.263   1_556  A
C22         C449   1.473       .  S
Ni24        O629   1.930       .  S
Ni24        O630   1.923       .  S
Ni25        O644   1.911   1_545  S
Ni25        O641   1.924   1_546  S
O27          C48   1.275       .  A
O27         Ni33   1.926       .  S
O28          C37   1.259       .  A
O28         Ni51   1.884   1_554  S
O29         Ni33   1.899       .  S
O29         Ni51   1.869       .  S
O29         Ni45   1.935   1_556  S
O29          H52   0.966       .  S
C30          O47   1.283       .  A
C30          O39   1.285       .  A
C30         C268   1.485       .  S
O31          C37   1.278       .  A
O31         Ni50   1.927       .  S
O32          C34   1.270       .  A
O32         Ni50   1.924       .  S
Ni33         O36   1.953       .  S
Ni33         O38   1.907       .  S
C34          O44   1.274       .  A
C34         C277   1.507       .  S
O35          C41   1.276       .  A
O35         Ni51   1.895       .  S
O36          C41   1.288       .  A
C37         C232   1.452       .  S
O38          C40   1.266       .  A
O39         Ni50   1.939       .  S
C40          O46   1.276       .  A
C40         C429   1.497       .  S
C41         C440   1.489       .  S
H42          O43   0.967       .  S
O43         Ni51   1.926   1_554  S
O43         Ni45   1.865       .  S
O43         Ni50   1.897       .  S
O44         Ni45   1.935       .  S
Ni45         O49   1.892   1_554  S
Ni45         O47   1.906       .  S
O46         Ni51   1.936       .  S
C48          O49   1.260       .  A
C48         C474   1.454       .  S
O53          C74   1.276       .  A
O53         Ni59   1.930       .  S
O54          C63   1.260       .  A
O54         Ni77   1.881       .  S
O55         Ni59   1.892       .  S
O55         Ni77   1.871       .  S
O55        Ni695   1.922       .  S
O55          H78   0.964       .  S
C56          O73   1.276       .  A
C56          O65   1.287       .  A
C56         C151   1.482       .  S
O57          C63   1.273       .  A
O57        Ni700   1.924       .  S
O58          C60   1.265       .  A
O58        Ni700   1.905       .  S
Ni59         O62   1.942       .  S
Ni59        O688   1.909       .  S
C60          O70   1.281       .  A
C60         C142   1.507       .  S
O61          C67   1.278       .  A
O61         Ni77   1.902       .  S
O62          C67   1.287       .  A
C63         C189   1.443       .  S
O64          C66   1.266       .  A
O64        Ni683   1.909   1_545  S
O65         Ni76   1.942   1_545  S
C66          O72   1.279       .  A
C66         C373   1.507       .  S
C67         C386   1.485       .  S
H68          O69   0.968       .  S
O69         Ni71   1.868   1_545  S
O69         Ni76   1.890   1_545  S
O69        Ni701   1.924   1_545  S
O70        Ni695   1.950       .  S
Ni71         O73   1.898   1_565  S
Ni71        O694   1.950       .  S
Ni71        O699   1.877       .  S
Ni71        O679   1.922       .  S
O72        Ni701   1.946   1_545  S
C74          O75   1.260       .  A
C74         C339   1.448       .  S
O75        Ni695   1.877       .  S
Ni76        O681   1.924       .  S
Ni76        O682   1.905       .  S
Ni77        O696   1.946       .  S
Ni77        O693   1.924       .  S
O79         C100   1.280   1_455  A
O79       Ni1333   1.929   1_455  S
O80          C89   1.259       .  A
O80        Ni103   1.883   1_554  S
O81         Ni85   1.896       .  S
O81        Ni103   1.869       .  S
O81       Ni1345   1.924   1_556  S
O81         H104   0.966       .  S
C82          O99   1.280       .  A
C82          O91   1.285       .  A
C82         C250   1.494       .  S
O83          C89   1.282       .  A
O83       Ni1350   1.934       .  S
O84          C86   1.271       .  A
O84       Ni1350   1.928       .  S
Ni85         O88   1.939       .  S
Ni85       O1327   1.929       .  S
Ni85       O1338   1.926       .  S
C86          O96   1.275       .  A
C86         C241   1.508       .  S
O87          C93   1.282       .  A
O87        Ni103   1.919       .  S
O88          C93   1.282       .  A
C89         C286   1.458       .  S
O90          C92   1.271       .  A
O90       Ni1333   1.926   1_455  S
O91        Ni102   1.946       .  S
C92          O98   1.275       .  A
C92         C467   1.506       .  S
C93         C454   1.491       .  S
H94          O95   0.966       .  S
O95         Ni97   1.868       .  S
O95        Ni102   1.895       .  S
O95       Ni1351   1.928   1_454  S
O96       Ni1345   1.935       .  S
Ni97        O101   1.875   1_454  S
Ni97         O99   1.919       .  S
Ni97       O1344   1.935   1_455  S
Ni97       O1329   1.924   1_454  S
O98       Ni1351   1.935   1_455  S
C100        O101   1.257       .  A
C100        C402   1.447       .  S
Ni102      O1331   1.934   1_455  S
Ni102      O1332   1.928   1_455  S
Ni103      O1346   1.935       .  S
Ni103      O1343   1.928   1_556  S
O105        C126   1.278       .  A
O105      Ni1359   1.929       .  S
O106        C115   1.259       .  A
O106      Ni1377   1.874       .  S
O107       Ni111   1.893       .  S
O107       Ni129   1.869   1_455  S
O107      Ni1371   1.935   1_455  S
O107        H130   0.967       .  S
C108        O125   1.285       .  A
C108        O117   1.288       .  A
C108        C348   1.505       .  S
O109        C115   1.279       .  A
O109       Ni128   1.930       .  S
O110        C112   1.267       .  A
O110      Ni1376   1.912   1_455  S
Ni111       O114   1.959       .  S
Ni111      O1353   1.929   1_455  S
Ni111      O1364   1.905   1_455  S
C112        O122   1.273       .  A
C112        C355   1.497       .  S
O113        C119   1.284       .  A
O113       Ni129   1.932   1_455  S
O114        C119   1.288       .  A
C115        C393   1.446       .  S
O116        C118   1.266       .  A
O116      Ni1359   1.905       .  S
O117       Ni128   1.954       .  S
C118        O124   1.271       .  A
C118        C169   1.490       .  S
C119        C178   1.510       .  S
H120        O121   0.966       .  S
O121       Ni123   1.864       .  S
O121       Ni128   1.890       .  S
O121      Ni1377   1.933       .  S
O122      Ni1371   1.927   1_455  S
Ni123       O127   1.878       .  S
Ni123       O125   1.932       .  S
Ni123      O1370   1.927       .  S
Ni123      O1355   1.935       .  S
O124      Ni1377   1.924       .  S
C126        O127   1.260       .  A
C126        C133   1.449       .  S
Ni128      O1358   1.912       .  S
Ni129      O1354   1.874       .  S
Ni129      O1372   1.924       .  S
Ni129      O1369   1.933       .  S
C131        C196   1.517       .  S
C131        C132   1.407       .  A
C131       C1384   1.439       .  A
C132       C1381   1.371       .  A
C132        H137   1.077       .  S
C133        C134   1.374       .  A
C133       C1380   1.371       .  A
C134        C135   1.408       .  A
C134        H138   1.080       .  S
C135        C153   1.517       .  S
C135        C136   1.433       .  A
C136       C1379   1.439       .  A
C136        H139   1.079       .  S
C140        C616   1.494       .  S
C140        C141   1.414       .  A
C140        C145   1.402       .  A
C141        C142   1.418       .  A
C141        H146   1.083       .  S
C142        C143   1.406       .  A
C143        C144   1.423       .  A
C143        H147   1.078       .  S
C144        C160   1.504       .  S
C144        C145   1.396       .  A
C145        H148   1.082       .  S
C149        C601   1.478       .  S
C149        C150   1.402       .  A
C149        C154   1.419       .  A
C150        C151   1.389       .  A
C150        H155   1.083       .  S
C151        C152   1.400       .  A
C152        C153   1.414       .  A
C152        H156   1.080       .  S
C153        C154   1.411       .  A
C154        H157   1.082       .  S
C158        C171   1.499       .  S
C158        C159   1.429       .  A
C158        C163   1.411       .  A
C159        C160   1.435       .  A
C159        H164   1.080       .  S
C160        C161   1.408       .  A
C161        C162   1.388       .  A
C161        H165   1.080       .  S
C162        C303   1.477       .  S
C162        C163   1.385       .  A
C163        H166   1.081       .  S
C167        C589   1.491       .  S
C167        C168   1.404       .  A
C167        C172   1.410       .  A
C168        C169   1.406       .  A
C168        H173   1.083       .  S
C169        C170   1.402       .  A
C170        C171   1.417       .  A
C170        H174   1.081       .  S
C171        C172   1.404       .  A
C172        H175   1.083       .  S
C176        C577   1.497       .  S
C176        C177   1.420       .  A
C176        C181   1.410       .  A
C177        C178   1.411       .  A
C177        H182   1.083       .  S
C178        C179   1.410       .  A
C179        C180   1.417       .  A
C179        H183   1.081       .  S
C180        C187   1.513       .  S
C180        C181   1.398       .  A
C181        H184   1.079       .  S
C185        C207   1.512       .  S
C185        C190   1.405       .  A
C185        C810   1.430   1_545  A
C186        C187   1.437       .  A
C186        C809   1.430       .  A
C186        H191   1.080       .  S
C187        C188   1.405       .  A
C188        C189   1.374       .  A
C188        H192   1.079       .  S
C189        C814   1.374       .  A
C190        C813   1.374   1_545  A
C190        H193   1.083       .  S
C194        C565   1.486       .  S
C194        C195   1.410       .  A
C194        C199   1.413       .  A
C195        C196   1.402       .  A
C195        H200   1.080       .  S
C196        C197   1.419       .  A
C197        C198   1.406       .  A
C197        H201   1.075       .  S
C198        C300   1.500       .  S
C198        C199   1.404       .  A
C199        H202   1.083       .  S
C203        C553   1.485       .  S
C203        C204   1.407       .  A
C203        C208   1.419       .  A
C204        C205   1.395       .  A
C204        H209   1.083       .  S
C205        C296   1.486       .  S
C205        C206   1.401       .  A
C206        C207   1.411       .  A
C206        H210   1.082       .  S
C207        C208   1.408       .  A
C208        H211   1.082       .  S
C212        C613   1.505       .  S
C212        C213   1.424       .  A
C212        C217   1.417       .  A
C213        C214   1.410       .  A
C213        H218   1.080       .  S
C214        C234   1.515       .  S
C214        C215   1.405       .  A
C215        C216   1.399       .  A
C215        H219   1.080       .  S
C216        C217   1.405       .  A
C217        H220   1.082       .  S
C221        C604   1.477       .  S
C221        C222   1.409       .  A
C221        C226   1.396       .  A
C222        C223   1.410       .  A
C222        H227   1.082       .  S
C223        C224   1.406       .  A
C224        C225   1.417       .  A
C224        H228   1.080       .  S
C225        C288   1.492       .  S
C225        C226   1.389       .  A
C226        H229   1.081       .  S
C230        C243   1.503       .  S
C230        C231   1.398       .  A
C230        C235   1.435       .  A
C231        C232   1.376       .  A
C231        H236   1.081       .  S
C232        C233   1.383       .  A
C233        C234   1.415       .  A
C233        H237   1.082       .  S
C234        C235   1.429       .  A
C235        H238   1.078       .  S
C239        C592   1.488       .  S
C239        C240   1.415       .  A
C239        C244   1.402       .  A
C240        C241   1.411       .  A
C240        H245   1.079       .  S
C241        C242   1.407       .  A
C242        C243   1.424       .  A
C242        H246   1.079       .  S
C243        C244   1.391       .  A
C244        H247   1.081       .  S
C248        C580   1.510       .  S
C248        C249   1.413       .  A
C248        C253   1.422       .  A
C249        C250   1.402       .  A
C249        H254   1.078       .  S
C250        C251   1.402       .  A
C251        C252   1.414       .  A
C251        H255   1.077       .  S
C252        C261   1.516       .  S
C252        C253   1.411       .  A
C253        H256   1.081       .  S
C257        C279   1.493       .  S
C257        C258   1.402       .  A
C257        C886   1.435       .  A
C258        C883   1.383       .  A
C258        H263   1.082       .  S
C259        C635   1.471       .  S
C259        C260   1.391       .  A
C259        C882   1.383       .  A
C260        C261   1.416       .  A
C260        H264   1.078       .  S
C261        C262   1.430       .  A
C262        C881   1.435       .  A
C262        H265   1.080       .  S
C266        C568   1.497       .  S
C266        C267   1.414       .  A
C266        C271   1.420       .  A
C267        C268   1.402       .  A
C267        H272   1.082       .  S
C268        C269   1.398       .  A
C269        C270   1.399       .  A
C269        H273   1.078       .  S
C270        C284   1.513       .  S
C270        C271   1.410       .  A
C271        H274   1.079       .  S
C275        C556   1.484       .  S
C275        C276   1.412       .  A
C275        C280   1.395       .  A
C276        C277   1.415       .  A
C276        H281   1.081       .  S
C277        C278   1.411       .  A
C278        C279   1.423       .  A
C278        H282   1.081       .  S
C279        C280   1.388       .  A
C280        H283   1.083       .  S
C284        C285   1.419       .  A
C284       C1537   1.423   1_455  A
C285       C1534   1.381   1_455  A
C285        H290   1.078       .  S
C286        C287   1.378       .  A
C286       C1533   1.381       .  A
C287        C288   1.400       .  A
C287        H291   1.081       .  S
C288        C289   1.428       .  A
C289       C1532   1.423       .  A
C289        H292   1.076       .  S
O293        C314   1.286       .  A
O293       Ni299   1.946       .  S
O294        C303   1.259       .  A
O294       Ni317   1.888       .  S
O295       Ni299   1.897       .  S
O295       Ni317   1.870       .  S
O295       Ni311   1.917       .  S
O295        H318   0.966       .  S
C296        O313   1.278       .  A
C296        O305   1.288       .  A
O297        C303   1.284       .  A
O297       Ni316   1.939       .  S
O298        C300   1.268       .  A
O298       Ni316   1.926       .  S
Ni299       O302   1.955       .  S
Ni299       O304   1.923       .  S
C300        O310   1.270       .  A
O301        C307   1.277       .  A
O301       Ni317   1.899       .  S
O302        C307   1.289       .  A
O304        C306   1.267       .  A
O305       Ni316   1.947       .  S
C306        O312   1.273       .  A
C306        C330   1.499       .  S
C307        C319   1.490       .  S
H308        O309   0.966       .  S
O309       Ni317   1.916       .  S
O309       Ni311   1.869       .  S
O309       Ni316   1.897       .  S
O310       Ni311   1.922       .  S
Ni311       O315   1.881       .  S
Ni311       O313   1.904       .  S
O312       Ni317   1.925       .  S
C314        O315   1.257       .  A
C314        C366   1.476       .  S
C319        C320   1.404       .  A
C319        C324   1.397       .  A
C320        C321   1.408       .  A
C320        H325   1.081       .  S
C321        C337   1.511       .  S
C321        C322   1.406       .  A
C322        C323   1.415       .  A
C322        H326   1.081       .  S
C323        C541   1.483       .  S
C323        C324   1.410       .  A
C324        H327   1.080       .  S
C328        C532   1.491       .  S
C328        C329   1.416       .  A
C328        C333   1.409       .  A
C329        C330   1.409       .  A
C329        H334   1.083       .  S
C330        C331   1.404       .  A
C331        C332   1.414       .  A
C331        H335   1.078       .  S
C332        C391   1.510       .  S
C332        C333   1.398       .  A
C333        H336   1.079       .  S
C337        C338   1.408       .  A
C337        C966   1.428       .  A
C338        C339   1.373       .  A
C338        H343   1.080       .  S
C339        C964   1.375       .  A
C340        C341   1.404       .  A
C340        C963   1.375   1_545  A
C340        H344   1.081       .  S
C341        C350   1.505       .  S
C341        C342   1.431   1_545  A
C342        C961   1.428       .  A
C342        H345   1.080       .  S
C346        C517   1.496       .  S
C346        C347   1.419       .  A
C346        C351   1.408       .  A
C347        C348   1.411       .  A
C347        H352   1.083       .  S
C348        C349   1.408       .  A
C349        C350   1.413       .  A
C349        H353   1.082       .  S
C350        C351   1.398       .  A
C351        H354   1.079       .  S
C355        C356   1.409       .  A
C355        C360   1.404       .  A
C356        C357   1.409       .  A
C356        H361   1.083       .  S
C357        C505   1.494       .  S
C357        C358   1.410       .  A
C358        C359   1.401       .  A
C358        H362   1.081       .  S
C359        C364   1.503       .  S
C359        C360   1.419       .  A
C360        H363   1.081       .  S
C364        C365   1.408       .  A
C364        C369   1.433       .  A
C365        C366   1.383       .  A
C365        H370   1.082       .  S
C366        C367   1.388       .  A
C367        C368   1.409       .  A
C367        H371   1.079       .  S
C368        C375   1.507       .  S
C368        C369   1.441       .  A
C369        H372   1.080       .  S
C373        C374   1.409       .  A
C373        C378   1.417       .  A
C374        C375   1.425       .  A
C374        H379   1.078       .  S
C375        C376   1.396       .  A
C376        C377   1.402       .  A
C376        H380   1.082       .  S
C377        C493   1.494       .  S
C377        C378   1.412       .  A
C378        H381   1.083       .  S
C382        C481   1.473       .  S
C382        C383   1.415       .  A
C382        C387   1.403       .  A
C383        C384   1.408       .  A
C383        H388   1.082       .  S
C384        C395   1.515       .  S
C384        C385   1.412       .  A
C385        C386   1.403       .  A
C385        H389   1.081       .  S
C386        C387   1.394       .  A
C387        H390   1.084       .  S
C391        C392   1.405       .  A
C391        C396   1.436       .  A
C392        C393   1.372       .  A
C392        H397   1.080       .  S
C393       C1642   1.372       .  A
C394        C395   1.407       .  A
C394       C1641   1.372   1_455  A
C394        H398   1.079       .  S
C395       C1644   1.430   1_455  A
C396       C1643   1.430       .  A
C396        H399   1.079       .  S
C400        C438   1.516       .  S
C400        C401   1.408       .  A
C400       C1653   1.426       .  A
C401       C1650   1.374       .  A
C401        H406   1.080       .  S
C402        C403   1.374   1_655  A
C402       C1649   1.374       .  A
C403        C404   1.405       .  A
C403        H407   1.074       .  S
C404        C422   1.518       .  S
C404        C405   1.439       .  A
C405       C1648   1.426   1_455  A
C405        H408   1.075       .  S
C409        C496   1.504       .  S
C409        C410   1.416       .  A
C409        C414   1.425       .  A
C410        C411   1.404       .  A
C410        H415   1.082       .  S
C411        C412   1.399       .  A
C412        C413   1.404       .  A
C412        H416   1.079       .  S
C413        C472   1.517       .  S
C413        C414   1.410       .  A
C414        H417   1.080       .  S
C418        C419   1.405       .  A
C418        C423   1.411       .  A
C419        C420   1.407       .  A
C419        H424   1.081       .  S
C420        C484   1.475       .  S
C420        C421   1.400       .  A
C421        C422   1.397       .  A
C421        H425   1.078       .  S
C422        C423   1.423       .  A
C423        H426   1.073       .  S
C427        C544   1.482       .  S
C427        C428   1.411       .  A
C427        C432   1.396       .  A
C428        C429   1.417       .  A
C428        H433   1.083       .  S
C429        C430   1.405       .  A
C430        C431   1.416       .  A
C430        H434   1.081       .  S
C431        C445   1.486       .  S
C431        C432   1.389       .  A
C432        H435   1.084       .  S
C436        C529   1.489       .  S
C436        C437   1.419       .  A
C436        C441   1.413       .  A
C437        C438   1.408       .  A
C437        H442   1.079       .  S
C438        C439   1.406       .  A
C439        C440   1.405       .  A
C439        H443   1.081       .  S
C440        C441   1.396       .  A
C441        H444   1.083       .  S
C445        C446   1.428       .  A
C445        C450   1.404       .  A
C446       C1071   1.423       .  A
C446        H451   1.081       .  S
C447        C458   1.506       .  S
C447        C448   1.415       .  A
C447       C1070   1.423   1_545  A
C448       C1073   1.390   1_545  A
C448        H452   1.080       .  S
C449        C450   1.384       .  A
C449       C1072   1.390       .  A
C450        H453   1.082       .  S
C454        C455   1.405       .  A
C454        C459   1.398       .  A
C455        C456   1.414       .  A
C455        H460   1.079       .  S
C456        C520   1.506       .  S
C456        C457   1.417       .  A
C457        C458   1.409       .  A
C457        H461   1.082       .  S
C458        C459   1.410       .  A
C459        H462   1.079       .  S
C463        C508   1.494       .  S
C463        C464   1.407       .  A
C463        C468   1.416       .  A
C464        C465   1.394       .  A
C464        H469   1.081       .  S
C465        C476   1.506       .  S
C465        C466   1.422       .  A
C466        C467   1.405       .  A
C466        H470   1.079       .  S
C467        C468   1.410       .  A
C468        H471   1.078       .  S
C472        C473   1.416       .  A
C472        C477   1.430       .  A
C473        C474   1.383       .  A
C473        H478   1.082       .  S
C474        C475   1.377       .  A
C475        C476   1.400       .  A
C475        H479   1.081       .  S
C476        C477   1.434       .  A
C477        H480   1.078       .  S
C481        C482   1.400       .  A
C481        C486   1.413       .  A
C482        C483   1.393       .  A
C482        H487   1.085       .  S
C483        C484   1.414       .  A
C483        C490   1.446       .  S
C484        C485   1.400       .  A
C485        C486   1.401       .  A
C485        H488   1.083       .  S
C486        C489   1.443       .  S
C489        N491   1.157       .  T
C490       N1116   1.157       .  T
N492       C1114   1.157   1_545  T
C493        C494   1.400       .  A
C493        C498   1.415       .  A
C494        C495   1.405       .  A
C494        H499   1.085       .  S
C495        C496   1.424       .  A
C495        C502   1.441       .  S
C496        C497   1.406       .  A
C497        C498   1.401       .  A
C497        H500   1.084       .  S
C498        C501   1.443       .  S
C501        N503   1.156       .  T
C502        N504   1.156       .  T
C505        C506   1.409       .  A
C505        C510   1.415       .  A
C506        C507   1.405       .  A
C506        H511   1.084       .  S
C507        C508   1.411       .  A
C507        C514   1.440       .  S
C508        C509   1.406       .  A
C509        C510   1.396       .  A
C509        H512   1.085       .  S
C510       C1761   1.444       .  S
C513       C1758   1.444       .  S
C513        N515   1.157       .  T
C514        N516   1.157       .  T
C517        C518   1.401       .  A
C517        C522   1.418       .  A
C518        C519   1.401       .  A
C518        H523   1.085       .  S
C519        C520   1.420       .  A
C519        C526   1.435       .  S
C520        C521   1.407       .  A
C521        C522   1.403       .  A
C521        H524   1.085       .  S
C522        C525   1.445       .  S
C525        N527   1.157       .  T
C526        N528   1.155       .  T
C529        C530   1.405       .  A
C529        C534   1.413       .  A
C530        C531   1.397       .  A
C530        H535   1.085       .  S
C531        C532   1.412       .  A
C531        C538   1.439       .  S
C532        C533   1.409       .  A
C533        C534   1.401       .  A
C533        H536   1.085       .  S
C534        C537   1.444       .  S
C537        N539   1.157       .  T
C538        N540   1.156       .  T
C541        C542   1.406       .  A
C541        C546   1.414       .  A
C542        C543   1.402       .  A
C542        H547   1.084       .  S
C543        C544   1.408       .  A
C543        C550   1.440       .  S
C544        C545   1.404       .  A
C545        C546   1.396       .  A
C545        H548   1.086       .  S
C546        C549   1.445       .  S
C549        N551   1.157       .  T
C550        N552   1.156       .  T
C553        C554   1.401       .  A
C553        C558   1.416       .  A
C554        C555   1.396       .  A
C554        H559   1.085       .  S
C555        C556   1.418       .  A
C555        C562   1.445       .  S
C556        C557   1.401       .  A
C557        C558   1.401       .  A
C557        H560   1.085       .  S
C558        C561   1.441       .  S
C561        N563   1.156       .  T
C562        N564   1.157       .  T
C565        C566   1.400       .  A
C565        C570   1.413       .  A
C566        C567   1.399       .  A
C566        H571   1.085       .  S
C567        C568   1.421       .  A
C567        C574   1.442       .  S
C568        C569   1.408       .  A
C569        C570   1.401       .  A
C569        H572   1.084       .  S
C570        C573   1.445       .  S
C573        N575   1.157       .  T
C574        N576   1.157       .  T
C577        C578   1.400       .  A
C577        C582   1.417       .  A
C578        C579   1.402       .  A
C578        H583   1.085       .  S
C579        C580   1.424       .  A
C579        C586   1.439       .  S
C580        C581   1.408       .  A
C581        C582   1.402       .  A
C581        H584   1.085       .  S
C582        C585   1.445       .  S
C585        N587   1.157       .  T
C586       N1836   1.156       .  T
N588       C1834   1.156       .  T
C589        C590   1.403       .  A
C589        C594   1.416       .  A
C590        C591   1.398       .  A
C590        H595   1.085       .  S
C591        C592   1.417       .  A
C591        C598   1.446       .  S
C592        C593   1.401       .  A
C593        C594   1.401       .  A
C593        H596   1.085       .  S
C594        C597   1.439       .  S
C597        N599   1.155       .  T
C598        N600   1.157       .  T
C601        C602   1.400       .  A
C601        C606   1.415       .  A
C602        C603   1.395       .  A
C602        H607   1.085       .  S
C603        C604   1.415       .  A
C603        C610   1.445   1_545  S
C604        C605   1.400       .  A
C605        C606   1.397       .  A
C605        H608   1.085       .  S
C606        C609   1.442       .  S
C609        N611   1.157       .  T
C610        N612   1.157       .  T
C613        C614   1.407       .  A
C613        C618   1.423       .  A
C614        C615   1.402       .  A
C614        H619   1.084       .  S
C615        C616   1.416       .  A
C615        C622   1.445       .  S
C616        C617   1.401       .  A
C617        C618   1.405       .  A
C617        H620   1.085       .  S
C618        C621   1.441       .  S
C621       N1247   1.157       .  T
C622        N624   1.157       .  T
N623       C1245   1.157       .  T
O625        C646   1.285       .  A
O626        C635   1.260   1_556  A
O626       Ni649   1.892       .  S
O627       Ni631   1.898       .  S
O627       Ni649   1.864       .  S
O627        H650   0.966       .  S
C628        O645   1.284       .  A
C628        O637   1.286       .  A
C628        C840   1.494       .  S
O629        C635   1.283       .  A
O630        C632   1.271       .  A
Ni631       O634   1.944       .  S
C632        O642   1.270       .  A
C632        C847   1.493       .  S
O633        C639   1.283       .  A
O633       Ni649   1.913       .  S
O634        C639   1.286       .  A
O636        C638   1.270       .  A
O637       Ni648   1.945       .  S
C638        O644   1.266       .  A
C638       C1042   1.499       .  S
C639       C1035   1.493       .  S
H640        O641   0.966       .  S
O641       Ni643   1.863       .  S
O641       Ni648   1.887       .  S
Ni643       O647   1.894       .  S
Ni643       O645   1.916       .  S
C646        O647   1.263   1_556  A
C646       C1073   1.473       .  S
O651        C672   1.275       .  A
O651       Ni657   1.926       .  S
O652        C661   1.259       .  A
O652       Ni675   1.884   1_554  S
O653       Ni657   1.899       .  S
O653       Ni675   1.869       .  S
O653       Ni669   1.935   1_556  S
O653        H676   0.966       .  S
C654        O671   1.283       .  A
C654        O663   1.285       .  A
C654        C892   1.484       .  S
O655        C661   1.278       .  A
O655       Ni674   1.927       .  S
O656        C658   1.270       .  A
O656       Ni674   1.924       .  S
Ni657       O660   1.953       .  S
Ni657       O662   1.907       .  S
C658        O668   1.274       .  A
C658        C901   1.507       .  S
O659        C665   1.276       .  A
O659       Ni675   1.895       .  S
O660        C665   1.288       .  A
C661        C856   1.452       .  S
O662        C664   1.266       .  A
O663       Ni674   1.939       .  S
C664        O670   1.276       .  A
C664       C1053   1.497       .  S
C665       C1064   1.489       .  S
H666        O667   0.967       .  S
O667       Ni675   1.926   1_554  S
O667       Ni669   1.865       .  S
O667       Ni674   1.897       .  S
O668       Ni669   1.935       .  S
Ni669       O673   1.892   1_554  S
Ni669       O671   1.906       .  S
O670       Ni675   1.936       .  S
C672        O673   1.260       .  A
C672       C1098   1.454       .  S
O677        C698   1.276   1_545  A
O677       Ni683   1.930   1_545  S
O678        C687   1.260   1_545  A
O678       Ni701   1.881   1_545  S
O679       Ni683   1.892       .  S
O679       Ni701   1.871       .  S
O679        H702   0.964       .  S
C680        O697   1.276       .  A
C680        O689   1.287       .  A
C680        C775   1.482       .  S
O681        C687   1.273       .  A
O682        C684   1.265       .  A
Ni683       O686   1.942       .  S
C684        O694   1.281       .  A
C684        C766   1.507       .  S
O685        C691   1.278       .  A
O685       Ni701   1.902       .  S
O686        C691   1.287       .  A
C687        C813   1.443       .  S
O688        C690   1.266       .  A
O689       Ni700   1.942       .  S
C690        O696   1.279       .  A
C690        C997   1.507       .  S
C691       C1010   1.485       .  S
H692        O693   0.968       .  S
O693       Ni695   1.868       .  S
O693       Ni700   1.890       .  S
Ni695       O697   1.898       .  S
C698        O699   1.260       .  A
C698        C963   1.448       .  S
O703        C724   1.280   1_455  A
O703      Ni1957   1.929   1_455  S
O704        C713   1.259       .  A
O704       Ni727   1.883   1_554  S
O705       Ni709   1.896       .  S
O705       Ni727   1.869       .  S
O705      Ni1969   1.924   1_556  S
O705        H728   0.966       .  S
C706        O723   1.280       .  A
C706        O715   1.285       .  A
C706        C874   1.494       .  S
O707        C713   1.282       .  A
O707      Ni1974   1.934       .  S
O708        C710   1.271       .  A
O708      Ni1974   1.929       .  S
Ni709      O1951   1.929       .  S
Ni709       O712   1.939       .  S
Ni709      O1962   1.926       .  S
C710        O720   1.275       .  A
C710        C865   1.508       .  S
O711        C717   1.282       .  A
O711       Ni727   1.919       .  S
O712        C717   1.282       .  A
C713        C910   1.458       .  S
O714        C716   1.271       .  A
O714      Ni1957   1.926   1_455  S
O715       Ni726   1.946       .  S
C716        O722   1.275       .  A
C716       C1091   1.506       .  S
C717       C1078   1.491       .  S
H718        O719   0.966       .  S
O719      Ni1975   1.928   1_454  S
O719       Ni721   1.868       .  S
O719       Ni726   1.895       .  S
O720      Ni1969   1.935       .  S
Ni721      O1968   1.935   1_455  S
Ni721       O725   1.875   1_454  S
Ni721       O723   1.919       .  S
Ni721      O1953   1.924   1_454  S
O722      Ni1975   1.935   1_455  S
C724        O725   1.257       .  A
C724       C1026   1.447       .  S
Ni726      O1955   1.934   1_455  S
Ni726      O1956   1.929   1_455  S
Ni727      O1970   1.935       .  S
Ni727      O1967   1.928   1_556  S
O729        C750   1.278       .  A
O729      Ni1983   1.929       .  S
O730        C739   1.259       .  A
O730      Ni2001   1.874       .  S
O731       Ni735   1.893       .  S
O731       Ni753   1.869   1_455  S
O731      Ni1995   1.935   1_455  S
O731        H754   0.967       .  S
C732        O749   1.285       .  A
C732        O741   1.288       .  A
C732        C972   1.505       .  S
O733        C739   1.279       .  A
O733       Ni752   1.930       .  S
O734        C736   1.267       .  A
O734      Ni2000   1.912   1_455  S
Ni735      O1977   1.929   1_455  S
Ni735       O738   1.959       .  S
Ni735      O1988   1.905   1_455  S
C736        O746   1.273       .  A
C736        C979   1.497       .  S
O737        C743   1.284       .  A
O737       Ni753   1.932   1_455  S
O738        C743   1.288       .  A
C739       C1017   1.446       .  S
O740        C742   1.266       .  A
O740      Ni1983   1.905       .  S
O741       Ni752   1.954       .  S
C742        O748   1.271       .  A
C742        C793   1.490       .  S
C743        C802   1.510       .  S
H744        O745   0.966       .  S
O745      Ni2001   1.932       .  S
O745       Ni747   1.864       .  S
O745       Ni752   1.890       .  S
O746      Ni1995   1.927   1_455  S
Ni747      O1994   1.927       .  S
Ni747       O751   1.878       .  S
Ni747       O749   1.932       .  S
Ni747      O1979   1.935       .  S
O748      Ni2001   1.924       .  S
C750        O751   1.260       .  A
C750        C757   1.449       .  S
Ni752      O1982   1.912       .  S
Ni753      O1978   1.874       .  S
Ni753      O1996   1.924       .  S
Ni753      O1993   1.932       .  S
C755        C820   1.517       .  S
C755        C756   1.407       .  A
C755       C2008   1.439       .  A
C756       C2005   1.371       .  A
C756        H761   1.077       .  S
C757       C2004   1.371       .  A
C757        C758   1.374       .  A
C758        C759   1.408       .  A
C758        H762   1.080       .  S
C759        C777   1.517       .  S
C759        C760   1.433       .  A
C760       C2003   1.439       .  A
C760        H763   1.079       .  S
C764       C1240   1.494       .  S
C764        C765   1.414       .  A
C764        C769   1.402       .  A
C765        C766   1.418       .  A
C765        H770   1.083       .  S
C766        C767   1.406       .  A
C767        C768   1.423       .  A
C767        H771   1.078       .  S
C768        C784   1.504       .  S
C768        C769   1.396       .  A
C769        H772   1.082       .  S
C773       C1225   1.478       .  S
C773        C774   1.402       .  A
C773        C778   1.419       .  A
C774        C775   1.389       .  A
C774        H779   1.083       .  S
C775        C776   1.400       .  A
C776        C777   1.414       .  A
C776        H780   1.080       .  S
C777        C778   1.411       .  A
C778        H781   1.082       .  S
C782        C795   1.499       .  S
C782        C783   1.429       .  A
C782        C787   1.411       .  A
C783        C784   1.435       .  A
C783        H788   1.080       .  S
C784        C785   1.408       .  A
C785        C786   1.388       .  A
C785        H789   1.080       .  S
C786        C927   1.477       .  S
C786        C787   1.385       .  A
C787        H790   1.081       .  S
C791       C1213   1.491       .  S
C791        C792   1.404       .  A
C791        C796   1.410       .  A
C792        C793   1.406       .  A
C792        H797   1.083       .  S
C793        C794   1.402       .  A
C794        C795   1.417       .  A
C794        H798   1.081       .  S
C795        C796   1.404       .  A
C796        H799   1.083       .  S
C800       C1201   1.497       .  S
C800        C801   1.420       .  A
C800        C805   1.410       .  A
C801        C802   1.411       .  A
C801        H806   1.083       .  S
C802        C803   1.410       .  A
C803        C804   1.417       .  A
C803        H807   1.081       .  S
C804        C811   1.513       .  S
C804        C805   1.398       .  A
C805        H808   1.079       .  S
C809        C831   1.512       .  S
C809        C814   1.405       .  A
C810        C811   1.437       .  A
C810        H815   1.080       .  S
C811        C812   1.405       .  A
C812        C813   1.374       .  A
C812        H816   1.079       .  S
C814        H817   1.083       .  S
C818       C1189   1.486       .  S
C818        C819   1.410       .  A
C818        C823   1.413       .  A
C819        C820   1.402       .  A
C819        H824   1.080       .  S
C820        C821   1.419       .  A
C821        C822   1.406       .  A
C821        H825   1.075       .  S
C822        C924   1.500       .  S
C822        C823   1.404       .  A
C823        H826   1.083       .  S
C827       C1177   1.485       .  S
C827        C828   1.407       .  A
C827        C832   1.419       .  A
C828        C829   1.395       .  A
C828        H833   1.083       .  S
C829        C920   1.486       .  S
C829        C830   1.401       .  A
C830        C831   1.411       .  A
C830        H834   1.082       .  S
C831        C832   1.408       .  A
C832        H835   1.082       .  S
C836       C1237   1.505       .  S
C836        C837   1.424       .  A
C836        C841   1.417       .  A
C837        C838   1.410       .  A
C837        H842   1.080       .  S
C838        C858   1.515       .  S
C838        C839   1.405       .  A
C839        C840   1.399       .  A
C839        H843   1.080       .  S
C840        C841   1.405       .  A
C841        H844   1.082       .  S
C845       C1228   1.477       .  S
C845        C846   1.409       .  A
C845        C850   1.396       .  A
C846        C847   1.410       .  A
C846        H851   1.082       .  S
C847        C848   1.406       .  A
C848        C849   1.417       .  A
C848        H852   1.080       .  S
C849        C912   1.492       .  S
C849        C850   1.389       .  A
C850        H853   1.081       .  S
C854        C867   1.503       .  S
C854        C855   1.398       .  A
C854        C859   1.435       .  A
C855        C856   1.376       .  A
C855        H860   1.081       .  S
C856        C857   1.383       .  A
C857        C858   1.414       .  A
C857        H861   1.083       .  S
C858        C859   1.429       .  A
C859        H862   1.078       .  S
C863       C1216   1.488       .  S
C863        C864   1.415       .  A
C863        C868   1.402       .  A
C864        C865   1.411       .  A
C864        H869   1.079       .  S
C865        C866   1.407       .  A
C866        C867   1.424       .  A
C866        H870   1.079       .  S
C867        C868   1.391       .  A
C868        H871   1.081       .  S
C872       C1204   1.510       .  S
C872        C873   1.413       .  A
C872        C877   1.421       .  A
C873        C874   1.402       .  A
C873        H878   1.078       .  S
C874        C875   1.402       .  A
C875        C876   1.414       .  A
C875        H879   1.077       .  S
C876        C885   1.516       .  S
C876        C877   1.411       .  A
C877        H880   1.081       .  S
C881        C903   1.493       .  S
C881        C882   1.402       .  A
C882        H887   1.082       .  S
C883        C884   1.391   1_545  A
C884        C885   1.416       .  A
C884        H888   1.078       .  S
C885        C886   1.429   1_565  A
C886        H889   1.080       .  S
C890       C1192   1.497       .  S
C890        C891   1.414       .  A
C890        C895   1.420       .  A
C891        C892   1.402       .  A
C891        H896   1.082       .  S
C892        C893   1.398       .  A
C893        C894   1.399       .  A
C893        H897   1.078       .  S
C894        C908   1.513       .  S
C894        C895   1.410       .  A
C895        H898   1.079       .  S
C899       C1180   1.484       .  S
C899        C900   1.412       .  A
C899        C904   1.395       .  A
C900        C901   1.415       .  A
C900        H905   1.081       .  S
C901        C902   1.411       .  A
C902        C903   1.423       .  A
C902        H906   1.081       .  S
C903        C904   1.388       .  A
C904        H907   1.083       .  S
C908        C909   1.419       .  A
C908       C2161   1.423   1_455  A
C909       C2158   1.381   1_455  A
C909        H914   1.078       .  S
C910       C2157   1.381       .  A
C910        C911   1.378       .  A
C911        C912   1.400       .  A
C911        H915   1.081       .  S
C912        C913   1.428       .  A
C913       C2156   1.423       .  A
C913        H916   1.076       .  S
O917        C938   1.286       .  A
O917       Ni923   1.946       .  S
O918        C927   1.259       .  A
O918       Ni941   1.888       .  S
O919       Ni923   1.897       .  S
O919       Ni941   1.870       .  S
O919       Ni935   1.917       .  S
O919        H942   0.966       .  S
C920        O937   1.278       .  A
C920        O929   1.288       .  A
O921        C927   1.284       .  A
O921       Ni940   1.940       .  S
O922        C924   1.268       .  A
O922       Ni940   1.926       .  S
Ni923       O926   1.955       .  S
Ni923       O928   1.923       .  S
C924        O934   1.270       .  A
O925        C931   1.277       .  A
O925       Ni941   1.899       .  S
O926        C931   1.289       .  A
O928        C930   1.267       .  A
O929       Ni940   1.947       .  S
C930        O936   1.273       .  A
C930        C954   1.499       .  S
C931        C943   1.490       .  S
H932        O933   0.966       .  S
O933       Ni941   1.916       .  S
O933       Ni935   1.869       .  S
O933       Ni940   1.897       .  S
O934       Ni935   1.921       .  S
Ni935       O939   1.881       .  S
Ni935       O937   1.904       .  S
O936       Ni941   1.925       .  S
C938        O939   1.257       .  A
C938        C990   1.476       .  S
C943        C944   1.404       .  A
C943        C948   1.397       .  A
C944        C945   1.408       .  A
C944        H949   1.081       .  S
C945        C961   1.511       .  S
C945        C946   1.406       .  A
C946        C947   1.415       .  A
C946        H950   1.081       .  S
C947       C1165   1.483       .  S
C947        C948   1.410       .  A
C948        H951   1.080       .  S
C952       C1156   1.491       .  S
C952        C953   1.416       .  A
C952        C957   1.409       .  A
C953        C954   1.409       .  A
C953        H958   1.083       .  S
C954        C955   1.404       .  A
C955        C956   1.414       .  A
C955        H959   1.078       .  S
C956       C1015   1.510       .  S
C956        C957   1.398       .  A
C957        H960   1.080       .  S
C961        C962   1.408       .  A
C962        C963   1.373       .  A
C962        H967   1.080       .  S
C964        C965   1.404       .  A
C964        H968   1.081       .  S
C965        C974   1.505       .  S
C965        C966   1.431       .  A
C966        H969   1.080       .  S
C970       C1141   1.496       .  S
C970        C971   1.419       .  A
C970        C975   1.408       .  A
C971        C972   1.411       .  A
C971        H976   1.083       .  S
C972        C973   1.408       .  A
C973        C974   1.412       .  A
C973        H977   1.082       .  S
C974        C975   1.398       .  A
C975        H978   1.079       .  S
C979        C980   1.409       .  A
C979        C984   1.404       .  A
C980        C981   1.409       .  A
C980        H985   1.083       .  S
C981       C1129   1.494       .  S
C981        C982   1.410       .  A
C982        C983   1.401       .  A
C982        H986   1.081       .  S
C983        C988   1.503       .  S
C983        C984   1.419       .  A
C984        H987   1.081       .  S
C988        C989   1.408       .  A
C988        C993   1.433       .  A
C989        C990   1.383       .  A
C989        H994   1.082       .  S
C990        C991   1.388       .  A
C991        C992   1.409       .  A
C991        H995   1.079       .  S
C992        C999   1.507       .  S
C992        C993   1.441       .  A
C993        H996   1.080       .  S
C997        C998   1.409       .  A
C997       C1002   1.417       .  A
C998        C999   1.425       .  A
C998       H1003   1.078       .  S
C999       C1000   1.396       .  A
C1000      C1001   1.402       .  A
C1000      H1004   1.082       .  S
C1001      C1117   1.494       .  S
C1001      C1002   1.412       .  A
C1002      H1005   1.083       .  S
C1006      C1105   1.473       .  S
C1006      C1007   1.415       .  A
C1006      C1011   1.403       .  A
C1007      C1008   1.408       .  A
C1007      H1012   1.082       .  S
C1008      C1019   1.515       .  S
C1008      C1009   1.412       .  A
C1009      C1010   1.403       .  A
C1009      H1013   1.081       .  S
C1010      C1011   1.394       .  A
C1011      H1014   1.084       .  S
C1015      C1016   1.405       .  A
C1015      C1020   1.436       .  A
C1016      C1017   1.372       .  A
C1016      H1021   1.080       .  S
C1017      C2266   1.372       .  A
C1018      C2265   1.372   1_455  A
C1018      C1019   1.407       .  A
C1018      H1022   1.079       .  S
C1019      C2268   1.430   1_455  A
C1020      C2267   1.430       .  A
C1020      H1023   1.079       .  S
C1024      C1062   1.516       .  S
C1024      C1025   1.408       .  A
C1024      C2277   1.426       .  A
C1025      C2274   1.374       .  A
C1025      H1030   1.080       .  S
C1026      C2273   1.374       .  A
C1026      C1027   1.374   1_655  A
C1027      C1028   1.405       .  A
C1027      H1031   1.074       .  S
C1028      C1046   1.518       .  S
C1028      C1029   1.439       .  A
C1029      C2272   1.426   1_455  A
C1029      H1032   1.075       .  S
C1033      C1120   1.504       .  S
C1033      C1034   1.416       .  A
C1033      C1038   1.425       .  A
C1034      C1035   1.404       .  A
C1034      H1039   1.082       .  S
C1035      C1036   1.399       .  A
C1036      C1037   1.404       .  A
C1036      H1040   1.079       .  S
C1037      C1096   1.517       .  S
C1037      C1038   1.410       .  A
C1038      H1041   1.080       .  S
C1042      C1043   1.405       .  A
C1042      C1047   1.411       .  A
C1043      C1044   1.407       .  A
C1043      H1048   1.081       .  S
C1044      C1108   1.475       .  S
C1044      C1045   1.400       .  A
C1045      C1046   1.397       .  A
C1045      H1049   1.078       .  S
C1046      C1047   1.423       .  A
C1047      H1050   1.072       .  S
C1051      C1168   1.482       .  S
C1051      C1052   1.411       .  A
C1051      C1056   1.396       .  A
C1052      C1053   1.417       .  A
C1052      H1057   1.083       .  S
C1053      C1054   1.405       .  A
C1054      C1055   1.416       .  A
C1054      H1058   1.081       .  S
C1055      C1069   1.486       .  S
C1055      C1056   1.389       .  A
C1056      H1059   1.084       .  S
C1060      C1153   1.489       .  S
C1060      C1061   1.419       .  A
C1060      C1065   1.413       .  A
C1061      C1062   1.408       .  A
C1061      H1066   1.079       .  S
C1062      C1063   1.406       .  A
C1063      C1064   1.405       .  A
C1063      H1067   1.081       .  S
C1064      C1065   1.396       .  A
C1065      H1068   1.083       .  S
C1069      C1070   1.428       .  A
C1069      C1074   1.404       .  A
C1070      H1075   1.081       .  S
C1071      C1082   1.506       .  S
C1071      C1072   1.415       .  A
C1072      H1076   1.080       .  S
C1073      C1074   1.384       .  A
C1074      H1077   1.082       .  S
C1078      C1079   1.405       .  A
C1078      C1083   1.398       .  A
C1079      C1080   1.414       .  A
C1079      H1084   1.079       .  S
C1080      C1144   1.506       .  S
C1080      C1081   1.417       .  A
C1081      C1082   1.409       .  A
C1081      H1085   1.082       .  S
C1082      C1083   1.410       .  A
C1083      H1086   1.079       .  S
C1087      C1132   1.494       .  S
C1087      C1088   1.407       .  A
C1087      C1092   1.416       .  A
C1088      C1089   1.393       .  A
C1088      H1093   1.081       .  S
C1089      C1100   1.506       .  S
C1089      C1090   1.422       .  A
C1090      C1091   1.405       .  A
C1090      H1094   1.079       .  S
C1091      C1092   1.410       .  A
C1092      H1095   1.078       .  S
C1096      C1097   1.416       .  A
C1096      C1101   1.430       .  A
C1097      C1098   1.383       .  A
C1097      H1102   1.082       .  S
C1098      C1099   1.377       .  A
C1099      C1100   1.400       .  A
C1099      H1103   1.081       .  S
C1100      C1101   1.434       .  A
C1101      H1104   1.078       .  S
C1105      C1106   1.400       .  A
C1105      C1110   1.413       .  A
C1106      C1107   1.393       .  A
C1106      H1111   1.085       .  S
C1107      C1108   1.414       .  A
C1107      C1114   1.446       .  S
C1108      C1109   1.401       .  A
C1109      C1110   1.401       .  A
C1109      H1112   1.083       .  S
C1110      C1113   1.443       .  S
C1113      N1115   1.157       .  T
C1117      C1118   1.400       .  A
C1117      C1122   1.415       .  A
C1118      C1119   1.405       .  A
C1118      H1123   1.085       .  S
C1119      C1120   1.424       .  A
C1119      C1126   1.441       .  S
C1120      C1121   1.406       .  A
C1121      C1122   1.401       .  A
C1121      H1124   1.084       .  S
C1122      C1125   1.443       .  S
C1125      N1127   1.156       .  T
C1126      N1128   1.156       .  T
C1129      C1130   1.409       .  A
C1129      C1134   1.415       .  A
C1130      C1131   1.405       .  A
C1130      H1135   1.084       .  S
C1131      C1132   1.411       .  A
C1131      C1138   1.440       .  S
C1132      C1133   1.406       .  A
C1133      C1134   1.396       .  A
C1133      H1136   1.085       .  S
C1134      C2385   1.444       .  S
C1137      C2382   1.444       .  S
C1137      N1139   1.157       .  T
C1138      N1140   1.157       .  T
C1141      C1142   1.401       .  A
C1141      C1146   1.418       .  A
C1142      C1143   1.401       .  A
C1142      H1147   1.085       .  S
C1143      C1144   1.420       .  A
C1143      C1150   1.435       .  S
C1144      C1145   1.407       .  A
C1145      C1146   1.403       .  A
C1145      H1148   1.085       .  S
C1146      C1149   1.445       .  S
C1149      N1151   1.157       .  T
C1150      N1152   1.155       .  T
C1153      C1154   1.405       .  A
C1153      C1158   1.413       .  A
C1154      C1155   1.397       .  A
C1154      H1159   1.085       .  S
C1155      C1156   1.412       .  A
C1155      C1162   1.439       .  S
C1156      C1157   1.409       .  A
C1157      C1158   1.401       .  A
C1157      H1160   1.085       .  S
C1158      C1161   1.444       .  S
C1161      N1163   1.157       .  T
C1162      N1164   1.156       .  T
C1165      C1166   1.406       .  A
C1165      C1170   1.414       .  A
C1166      C1167   1.402       .  A
C1166      H1171   1.084       .  S
C1167      C1168   1.408       .  A
C1167      C1174   1.440       .  S
C1168      C1169   1.404       .  A
C1169      C1170   1.396       .  A
C1169      H1172   1.086       .  S
C1170      C1173   1.445       .  S
C1173      N1175   1.157       .  T
C1174      N1176   1.156       .  T
C1177      C1178   1.401       .  A
C1177      C1182   1.416       .  A
C1178      C1179   1.396       .  A
C1178      H1183   1.085       .  S
C1179      C1180   1.418       .  A
C1179      C1186   1.445       .  S
C1180      C1181   1.401       .  A
C1181      C1182   1.401       .  A
C1181      H1184   1.085       .  S
C1182      C1185   1.441       .  S
C1185      N1187   1.156       .  T
C1186      N1188   1.157       .  T
C1189      C1190   1.400       .  A
C1189      C1194   1.413       .  A
C1190      C1191   1.399       .  A
C1190      H1195   1.085       .  S
C1191      C1192   1.421       .  A
C1191      C1198   1.442       .  S
C1192      C1193   1.408       .  A
C1193      C1194   1.401       .  A
C1193      H1196   1.084       .  S
C1194      C1197   1.445       .  S
C1197      N1199   1.157       .  T
C1198      N1200   1.157       .  T
C1201      C1202   1.400       .  A
C1201      C1206   1.417       .  A
C1202      C1203   1.402       .  A
C1202      H1207   1.085       .  S
C1203      C1204   1.424       .  A
C1203      C1210   1.439       .  S
C1204      C1205   1.408       .  A
C1205      C1206   1.402       .  A
C1205      H1208   1.085       .  S
C1206      C1209   1.445       .  S
C1209      N1211   1.157       .  T
C1210      N2460   1.156       .  T
N1212      C2458   1.156       .  T
C1213      C1214   1.403       .  A
C1213      C1218   1.416       .  A
C1214      C1215   1.398       .  A
C1214      H1219   1.085       .  S
C1215      C1216   1.417       .  A
C1215      C1222   1.446       .  S
C1216      C1217   1.401       .  A
C1217      C1218   1.401       .  A
C1217      H1220   1.085       .  S
C1218      C1221   1.439       .  S
C1221      N1223   1.155       .  T
C1222      N1224   1.157       .  T
C1225      C1226   1.400       .  A
C1225      C1230   1.415       .  A
C1226      C1227   1.395       .  A
C1226      H1231   1.085       .  S
C1227      C1228   1.415       .  A
C1227      C1234   1.445       .  S
C1228      C1229   1.400       .  A
C1229      C1230   1.397       .  A
C1229      H1232   1.085       .  S
C1230      C1233   1.442       .  S
C1233      N1235   1.157       .  T
C1234      N1236   1.157       .  T
C1237      C1238   1.407       .  A
C1237      C1242   1.423       .  A
C1238      C1239   1.402       .  A
C1238      H1243   1.084       .  S
C1239      C1240   1.416       .  A
C1239      C1246   1.445       .  S
C1240      C1241   1.401       .  A
C1241      C1242   1.405       .  A
C1241      H1244   1.085       .  S
C1242      C1245   1.441       .  S
C1246      N1248   1.157       .  T
O1249      C1270   1.285       .  A
O1249     Ni1879   1.933       .  S
O1250      C1259   1.260   1_566  A
O1250     Ni1273   1.892   1_565  S
O1251     Ni1255   1.898       .  S
O1251     Ni1273   1.864       .  S
O1251     Ni1891   1.929   1_546  S
O1251      H1274   0.966       .  S
C1252      O1269   1.284       .  A
C1252      O1261   1.286       .  A
C1252      C1464   1.494       .  S
O1253      C1259   1.283       .  A
O1253     Ni1896   1.930   1_545  S
O1254      C1256   1.271       .  A
O1254     Ni1896   1.923   1_545  S
Ni1255     O1873   1.933   1_545  S
Ni1255     O1258   1.944       .  S
Ni1255     O1884   1.935   1_545  S
C1256      O1266   1.270       .  A
C1256      C1471   1.493       .  S
O1257      C1263   1.283       .  A
O1257     Ni1273   1.914       .  S
O1258      C1263   1.286       .  A
C1259      C2131   1.471       .  S
O1260      C1262   1.270       .  A
O1260     Ni1879   1.935       .  S
O1261     Ni1272   1.945       .  S
C1262      O1268   1.266       .  A
C1262      C1666   1.499       .  S
C1263      C1659   1.493       .  S
H1264      O1265   0.966       .  S
O1265     Ni1897   1.924   1_554  S
O1265     Ni1267   1.863       .  S
O1265     Ni1272   1.887       .  S
O1266     Ni1891   1.918   1_545  S
Ni1267     O1890   1.918       .  S
Ni1267     O1271   1.894       .  S
Ni1267     O1269   1.916       .  S
Ni1267     O1875   1.929   1_554  S
O1268     Ni1897   1.910       .  S
C1270      O1271   1.263   1_556  A
C1270      C1697   1.473       .  S
Ni1272     O1877   1.930       .  S
Ni1272     O1878   1.923       .  S
Ni1273     O1892   1.911   1_545  S
Ni1273     O1889   1.924   1_546  S
O1275      C1296   1.275       .  A
O1275     Ni1281   1.926       .  S
O1276      C1285   1.259       .  A
O1276     Ni1299   1.884   1_554  S
O1277     Ni1281   1.899       .  S
O1277     Ni1299   1.869       .  S
O1277     Ni1293   1.935   1_556  S
O1277      H1300   0.966       .  S
C1278      O1295   1.283       .  A
C1278      O1287   1.285       .  A
C1278      C1516   1.485       .  S
O1279      C1285   1.278       .  A
O1279     Ni1298   1.927       .  S
O1280      C1282   1.270       .  A
O1280     Ni1298   1.924       .  S
Ni1281     O1284   1.953       .  S
Ni1281     O1286   1.907       .  S
C1282      O1292   1.274       .  A
C1282      C1525   1.507       .  S
O1283      C1289   1.276       .  A
O1283     Ni1299   1.895       .  S
O1284      C1289   1.288       .  A
C1285      C1480   1.452       .  S
O1286      C1288   1.266       .  A
O1287     Ni1298   1.939       .  S
C1288      O1294   1.276       .  A
C1288      C1677   1.497       .  S
C1289      C1688   1.489       .  S
H1290      O1291   0.967       .  S
O1291     Ni1299   1.926   1_554  S
O1291     Ni1293   1.865       .  S
O1291     Ni1298   1.897       .  S
O1292     Ni1293   1.935       .  S
Ni1293     O1297   1.892   1_554  S
Ni1293     O1295   1.906       .  S
O1294     Ni1299   1.936       .  S
C1296      O1297   1.260       .  A
C1296      C1722   1.454       .  S
O1301      C1322   1.276       .  A
O1301     Ni1307   1.930       .  S
O1302      C1311   1.260       .  A
O1302     Ni1325   1.881       .  S
O1303     Ni1307   1.892       .  S
O1303     Ni1325   1.871       .  S
O1303     Ni1943   1.922       .  S
O1303      H1326   0.964       .  S
C1304      O1321   1.276       .  A
C1304      O1313   1.287       .  A
C1304      C1399   1.482       .  S
O1305      C1311   1.273       .  A
O1305     Ni1948   1.924       .  S
O1306      C1308   1.265       .  A
O1306     Ni1948   1.905       .  S
Ni1307     O1310   1.942       .  S
Ni1307     O1936   1.909       .  S
C1308      O1318   1.281       .  A
C1308      C1390   1.507       .  S
O1309      C1315   1.278       .  A
O1309     Ni1325   1.902       .  S
O1310      C1315   1.287       .  A
C1311      C1437   1.443       .  S
O1312      C1314   1.266       .  A
O1312     Ni1931   1.909   1_545  S
O1313     Ni1324   1.942   1_545  S
C1314      O1320   1.279       .  A
C1314      C1621   1.507       .  S
C1315      C1634   1.485       .  S
H1316      O1317   0.968       .  S
O1317     Ni1949   1.924   1_545  S
O1317     Ni1319   1.868   1_545  S
O1317     Ni1324   1.890   1_545  S
O1318     Ni1943   1.950       .  S
Ni1319     O1942   1.950       .  S
Ni1319     O1947   1.877       .  S
Ni1319     O1321   1.898   1_565  S
Ni1319     O1927   1.922       .  S
O1320     Ni1949   1.946   1_545  S
C1322      O1323   1.260       .  A
C1322      C1587   1.448       .  S
O1323     Ni1943   1.877       .  S
Ni1324     O1929   1.924       .  S
Ni1324     O1930   1.905       .  S
Ni1325     O1944   1.946       .  S
Ni1325     O1941   1.924       .  S
O1327      C1348   1.280       .  A
O1328      C1337   1.259       .  A
O1328     Ni1351   1.883   1_554  S
O1329     Ni1333   1.896       .  S
O1329     Ni1351   1.869       .  S
O1329      H1352   0.966       .  S
C1330      O1347   1.280       .  A
C1330      O1339   1.285       .  A
C1330      C1498   1.494       .  S
O1331      C1337   1.282       .  A
O1332      C1334   1.271       .  A
Ni1333     O1336   1.939       .  S
C1334      O1344   1.275       .  A
C1334      C1489   1.508       .  S
O1335      C1341   1.282       .  A
O1335     Ni1351   1.919       .  S
O1336      C1341   1.282       .  A
C1337      C1534   1.458       .  S
O1338      C1340   1.271       .  A
O1339     Ni1350   1.946       .  S
C1340      O1346   1.275       .  A
C1340      C1715   1.506       .  S
C1341      C1702   1.491       .  S
H1342      O1343   0.966       .  S
O1343     Ni1345   1.868       .  S
O1343     Ni1350   1.895       .  S
Ni1345     O1349   1.875   1_554  S
Ni1345     O1347   1.919       .  S
C1348      O1349   1.257       .  A
C1348      C1650   1.447       .  S
O1353      C1374   1.278       .  A
O1354      C1363   1.259       .  A
O1355     Ni1359   1.893       .  S
O1355     Ni1377   1.869       .  S
O1355      H1378   0.967       .  S
C1356      O1373   1.285       .  A
C1356      O1365   1.288       .  A
C1356      C1596   1.505       .  S
O1357      C1363   1.279   1_455  A
O1357     Ni1376   1.930   1_455  S
O1358      C1360   1.267       .  A
Ni1359     O1362   1.959       .  S
C1360      O1370   1.273       .  A
C1360      C1603   1.497       .  S
O1361      C1367   1.284       .  A
O1361     Ni1377   1.932       .  S
O1362      C1367   1.288       .  A
C1363      C1641   1.446       .  S
O1364      C1366   1.266       .  A
O1365     Ni1376   1.954       .  S
C1366      O1372   1.271       .  A
C1366      C1417   1.490       .  S
C1367      C1426   1.510       .  S
H1368      O1369   0.966       .  S
O1369     Ni1371   1.864       .  S
O1369     Ni1376   1.890       .  S
Ni1371     O1375   1.878   1_655  S
Ni1371     O1373   1.932       .  S
C1374      O1375   1.260   1_655  A
C1374      C1381   1.449   1_655  S
C1379      C1444   1.517       .  S
C1379      C1380   1.407       .  A
C1380      H1385   1.077       .  S
C1381      C1382   1.374   1_455  A
C1382      C1383   1.408       .  A
C1382      H1386   1.080       .  S
C1383      C1401   1.517       .  S
C1383      C1384   1.433   1_655  A
C1384      H1387   1.079       .  S
C1388      C1864   1.494       .  S
C1388      C1389   1.414       .  A
C1388      C1393   1.402       .  A
C1389      C1390   1.418       .  A
C1389      H1394   1.083       .  S
C1390      C1391   1.406       .  A
C1391      C1392   1.423       .  A
C1391      H1395   1.078       .  S
C1392      C1408   1.504       .  S
C1392      C1393   1.396       .  A
C1393      H1396   1.082       .  S
C1397      C1849   1.478       .  S
C1397      C1398   1.402       .  A
C1397      C1402   1.419       .  A
C1398      C1399   1.389       .  A
C1398      H1403   1.083       .  S
C1399      C1400   1.400       .  A
C1400      C1401   1.414       .  A
C1400      H1404   1.080       .  S
C1401      C1402   1.411       .  A
C1402      H1405   1.082       .  S
C1406      C1419   1.499       .  S
C1406      C1407   1.429       .  A
C1406      C1411   1.411       .  A
C1407      C1408   1.435       .  A
C1407      H1412   1.080       .  S
C1408      C1409   1.408       .  A
C1409      C1410   1.388       .  A
C1409      H1413   1.080       .  S
C1410      C1551   1.477       .  S
C1410      C1411   1.385       .  A
C1411      H1414   1.081       .  S
C1415      C1837   1.491       .  S
C1415      C1416   1.404       .  A
C1415      C1420   1.410       .  A
C1416      C1417   1.406       .  A
C1416      H1421   1.083       .  S
C1417      C1418   1.402       .  A
C1418      C1419   1.417       .  A
C1418      H1422   1.081       .  S
C1419      C1420   1.404       .  A
C1420      H1423   1.083       .  S
C1424      C1825   1.497       .  S
C1424      C1425   1.420       .  A
C1424      C1429   1.410       .  A
C1425      C1426   1.411       .  A
C1425      H1430   1.083       .  S
C1426      C1427   1.410       .  A
C1427      C1428   1.417       .  A
C1427      H1431   1.081       .  S
C1428      C1435   1.513       .  S
C1428      C1429   1.398       .  A
C1429      H1432   1.079       .  S
C1433      C1455   1.512       .  S
C1433      C2058   1.430   1_545  A
C1433      C1438   1.405       .  A
C1434      C2057   1.430       .  A
C1434      C1435   1.437       .  A
C1434      H1439   1.080       .  S
C1435      C1436   1.405       .  A
C1436      C1437   1.374       .  A
C1436      H1440   1.079       .  S
C1437      C2062   1.374       .  A
C1438      C2061   1.374   1_545  A
C1438      H1441   1.083       .  S
C1442      C1813   1.486       .  S
C1442      C1443   1.410       .  A
C1442      C1447   1.413       .  A
C1443      C1444   1.402       .  A
C1443      H1448   1.080       .  S
C1444      C1445   1.419       .  A
C1445      C1446   1.406       .  A
C1445      H1449   1.075       .  S
C1446      C1548   1.500       .  S
C1446      C1447   1.404       .  A
C1447      H1450   1.083       .  S
C1451      C1801   1.485       .  S
C1451      C1452   1.407       .  A
C1451      C1456   1.419       .  A
C1452      C1453   1.395       .  A
C1452      H1457   1.083       .  S
C1453      C1544   1.486       .  S
C1453      C1454   1.401       .  A
C1454      C1455   1.411       .  A
C1454      H1458   1.082       .  S
C1455      C1456   1.408       .  A
C1456      H1459   1.082       .  S
C1460      C1861   1.505       .  S
C1460      C1461   1.424       .  A
C1460      C1465   1.417       .  A
C1461      C1462   1.410       .  A
C1461      H1466   1.080       .  S
C1462      C1482   1.515       .  S
C1462      C1463   1.405       .  A
C1463      C1464   1.399       .  A
C1463      H1467   1.080       .  S
C1464      C1465   1.405       .  A
C1465      H1468   1.082       .  S
C1469      C1852   1.477       .  S
C1469      C1470   1.409       .  A
C1469      C1474   1.396       .  A
C1470      C1471   1.410       .  A
C1470      H1475   1.082       .  S
C1471      C1472   1.406       .  A
C1472      C1473   1.417       .  A
C1472      H1476   1.080       .  S
C1473      C1536   1.492       .  S
C1473      C1474   1.389       .  A
C1474      H1477   1.081       .  S
C1478      C1491   1.503       .  S
C1478      C1479   1.398       .  A
C1478      C1483   1.435       .  A
C1479      C1480   1.376       .  A
C1479      H1484   1.081       .  S
C1480      C1481   1.383       .  A
C1481      C1482   1.415       .  A
C1481      H1485   1.082       .  S
C1482      C1483   1.429       .  A
C1483      H1486   1.078       .  S
C1487      C1840   1.488       .  S
C1487      C1488   1.415       .  A
C1487      C1492   1.402       .  A
C1488      C1489   1.411       .  A
C1488      H1493   1.079       .  S
C1489      C1490   1.407       .  A
C1490      C1491   1.424       .  A
C1490      H1494   1.079       .  S
C1491      C1492   1.391       .  A
C1492      H1495   1.081       .  S
C1496      C1828   1.510       .  S
C1496      C1497   1.413       .  A
C1496      C1501   1.422       .  A
C1497      C1498   1.402       .  A
C1497      H1502   1.078       .  S
C1498      C1499   1.402       .  A
C1499      C1500   1.414       .  A
C1499      H1503   1.077       .  S
C1500      C1509   1.516       .  S
C1500      C1501   1.411       .  A
C1501      H1504   1.081       .  S
C1505      C1527   1.493       .  S
C1505      C1506   1.402       .  A
C1505      C2134   1.435       .  A
C1506      C2131   1.383       .  A
C1506      H1511   1.082       .  S
C1507      C1883   1.471       .  S
C1507      C2130   1.383       .  A
C1507      C1508   1.391       .  A
C1508      C1509   1.416       .  A
C1508      H1512   1.078       .  S
C1509      C1510   1.430       .  A
C1510      C2129   1.435       .  A
C1510      H1513   1.080       .  S
C1514      C1816   1.497       .  S
C1514      C1515   1.414       .  A
C1514      C1519   1.420       .  A
C1515      C1516   1.402       .  A
C1515      H1520   1.082       .  S
C1516      C1517   1.398       .  A
C1517      C1518   1.399       .  A
C1517      H1521   1.078       .  S
C1518      C1532   1.513       .  S
C1518      C1519   1.410       .  A
C1519      H1522   1.079       .  S
C1523      C1804   1.484       .  S
C1523      C1524   1.412       .  A
C1523      C1528   1.395       .  A
C1524      C1525   1.415       .  A
C1524      H1529   1.081       .  S
C1525      C1526   1.411       .  A
C1526      C1527   1.423       .  A
C1526      H1530   1.081       .  S
C1527      C1528   1.388       .  A
C1528      H1531   1.083       .  S
C1532      C1533   1.419       .  A
C1533      H1538   1.078       .  S
C1534      C1535   1.378       .  A
C1535      C1536   1.400       .  A
C1535      H1539   1.081       .  S
C1536      C1537   1.428       .  A
C1537      H1540   1.076       .  S
O1541      C1562   1.286       .  A
O1541     Ni1547   1.946       .  S
O1542      C1551   1.259       .  A
O1542     Ni1565   1.888       .  S
O1543     Ni1547   1.897       .  S
O1543     Ni1565   1.870       .  S
O1543     Ni1559   1.917       .  S
O1543      H1566   0.966       .  S
C1544      O1561   1.278       .  A
C1544      O1553   1.288       .  A
O1545      C1551   1.284       .  A
O1545     Ni1564   1.939       .  S
O1546      C1548   1.268       .  A
O1546     Ni1564   1.926       .  S
Ni1547     O1550   1.955       .  S
Ni1547     O1552   1.923       .  S
C1548      O1558   1.270       .  A
O1549      C1555   1.277       .  A
O1549     Ni1565   1.899       .  S
O1550      C1555   1.289       .  A
O1552      C1554   1.267       .  A
O1553     Ni1564   1.947       .  S
C1554      O1560   1.273       .  A
C1554      C1578   1.499       .  S
C1555      C1567   1.490       .  S
H1556      O1557   0.966       .  S
O1557     Ni1565   1.916       .  S
O1557     Ni1559   1.869       .  S
O1557     Ni1564   1.897       .  S
O1558     Ni1559   1.922       .  S
Ni1559     O1563   1.881       .  S
Ni1559     O1561   1.904       .  S
O1560     Ni1565   1.925       .  S
C1562      O1563   1.257       .  A
C1562      C1614   1.476       .  S
C1567      C1568   1.404       .  A
C1567      C1572   1.397       .  A
C1568      C1569   1.408       .  A
C1568      H1573   1.081       .  S
C1569      C1585   1.511       .  S
C1569      C1570   1.406       .  A
C1570      C1571   1.415       .  A
C1570      H1574   1.081       .  S
C1571      C1789   1.483       .  S
C1571      C1572   1.410       .  A
C1572      H1575   1.080       .  S
C1576      C1780   1.491       .  S
C1576      C1577   1.416       .  A
C1576      C1581   1.409       .  A
C1577      C1578   1.409       .  A
C1577      H1582   1.083       .  S
C1578      C1579   1.404       .  A
C1579      C1580   1.414       .  A
C1579      H1583   1.078       .  S
C1580      C1639   1.510       .  S
C1580      C1581   1.398       .  A
C1581      H1584   1.079       .  S
C1585      C1586   1.408       .  A
C1585      C2214   1.428       .  A
C1586      C1587   1.373       .  A
C1586      H1591   1.080       .  S
C1587      C2212   1.375       .  A
C1588      C2211   1.375   1_545  A
C1588      C1589   1.404       .  A
C1588      H1592   1.081       .  S
C1589      C1598   1.505       .  S
C1589      C1590   1.431   1_545  A
C1590      C2209   1.428       .  A
C1590      H1593   1.080       .  S
C1594      C1765   1.496       .  S
C1594      C1595   1.419       .  A
C1594      C1599   1.408       .  A
C1595      C1596   1.411       .  A
C1595      H1600   1.083       .  S
C1596      C1597   1.408       .  A
C1597      C1598   1.413       .  A
C1597      H1601   1.082       .  S
C1598      C1599   1.398       .  A
C1599      H1602   1.079       .  S
C1603      C1604   1.409       .  A
C1603      C1608   1.404       .  A
C1604      C1605   1.409       .  A
C1604      H1609   1.083       .  S
C1605      C1753   1.494       .  S
C1605      C1606   1.410       .  A
C1606      C1607   1.401       .  A
C1606      H1610   1.081       .  S
C1607      C1612   1.503       .  S
C1607      C1608   1.419       .  A
C1608      H1611   1.081       .  S
C1612      C1613   1.408       .  A
C1612      C1617   1.433       .  A
C1613      C1614   1.383       .  A
C1613      H1618   1.082       .  S
C1614      C1615   1.388       .  A
C1615      C1616   1.409       .  A
C1615      H1619   1.079       .  S
C1616      C1623   1.507       .  S
C1616      C1617   1.441       .  A
C1617      H1620   1.080       .  S
C1621      C1622   1.409       .  A
C1621      C1626   1.417       .  A
C1622      C1623   1.425       .  A
C1622      H1627   1.078       .  S
C1623      C1624   1.396       .  A
C1624      C1625   1.402       .  A
C1624      H1628   1.082       .  S
C1625      C1741   1.494       .  S
C1625      C1626   1.412       .  A
C1626      H1629   1.083       .  S
C1630      C1729   1.473       .  S
C1630      C1631   1.415       .  A
C1630      C1635   1.403       .  A
C1631      C1632   1.408       .  A
C1631      H1636   1.082       .  S
C1632      C1643   1.515       .  S
C1632      C1633   1.412       .  A
C1633      C1634   1.403       .  A
C1633      H1637   1.081       .  S
C1634      C1635   1.394       .  A
C1635      H1638   1.084       .  S
C1639      C1640   1.405       .  A
C1639      C1644   1.436       .  A
C1640      C1641   1.372       .  A
C1640      H1645   1.080       .  S
C1642      C1643   1.407       .  A
C1642      H1646   1.079       .  S
C1644      H1647   1.079       .  S
C1648      C1686   1.516       .  S
C1648      C1649   1.408       .  A
C1649      H1654   1.080       .  S
C1650      C1651   1.374       .  A
C1651      C1652   1.405       .  A
C1651      H1655   1.074       .  S
C1652      C1670   1.518       .  S
C1652      C1653   1.439       .  A
C1653      H1656   1.075       .  S
C1657      C1744   1.504       .  S
C1657      C1658   1.416       .  A
C1657      C1662   1.425       .  A
C1658      C1659   1.404       .  A
C1658      H1663   1.082       .  S
C1659      C1660   1.399       .  A
C1660      C1661   1.404       .  A
C1660      H1664   1.079       .  S
C1661      C1720   1.517       .  S
C1661      C1662   1.410       .  A
C1662      H1665   1.080       .  S
C1666      C1667   1.405       .  A
C1666      C1671   1.411       .  A
C1667      C1668   1.407       .  A
C1667      H1672   1.081       .  S
C1668      C1732   1.475       .  S
C1668      C1669   1.400       .  A
C1669      C1670   1.397       .  A
C1669      H1673   1.078       .  S
C1670      C1671   1.423       .  A
C1671      H1674   1.073       .  S
C1675      C1792   1.482       .  S
C1675      C1676   1.411       .  A
C1675      C1680   1.396       .  A
C1676      C1677   1.417       .  A
C1676      H1681   1.083       .  S
C1677      C1678   1.405       .  A
C1678      C1679   1.416       .  A
C1678      H1682   1.081       .  S
C1679      C1693   1.486       .  S
C1679      C1680   1.389       .  A
C1680      H1683   1.084       .  S
C1684      C1777   1.489       .  S
C1684      C1685   1.419       .  A
C1684      C1689   1.413       .  A
C1685      C1686   1.408       .  A
C1685      H1690   1.079       .  S
C1686      C1687   1.406       .  A
C1687      C1688   1.405       .  A
C1687      H1691   1.081       .  S
C1688      C1689   1.396       .  A
C1689      H1692   1.083       .  S
C1693      C1694   1.428       .  A
C1693      C1698   1.404       .  A
C1694      C2319   1.423       .  A
C1694      H1699   1.081       .  S
C1695      C1706   1.506       .  S
C1695      C2318   1.423   1_545  A
C1695      C1696   1.415       .  A
C1696      C2321   1.390   1_545  A
C1696      H1700   1.080       .  S
C1697      C2320   1.390       .  A
C1697      C1698   1.384       .  A
C1698      H1701   1.082       .  S
C1702      C1703   1.405       .  A
C1702      C1707   1.398       .  A
C1703      C1704   1.414       .  A
C1703      H1708   1.079       .  S
C1704      C1768   1.506       .  S
C1704      C1705   1.417       .  A
C1705      C1706   1.409       .  A
C1705      H1709   1.082       .  S
C1706      C1707   1.410       .  A
C1707      H1710   1.079       .  S
C1711      C1756   1.494       .  S
C1711      C1712   1.407       .  A
C1711      C1716   1.416       .  A
C1712      C1713   1.394       .  A
C1712      H1717   1.081       .  S
C1713      C1724   1.506       .  S
C1713      C1714   1.422       .  A
C1714      C1715   1.405       .  A
C1714      H1718   1.079       .  S
C1715      C1716   1.410       .  A
C1716      H1719   1.078       .  S
C1720      C1721   1.416       .  A
C1720      C1725   1.430       .  A
C1721      C1722   1.383       .  A
C1721      H1726   1.082       .  S
C1722      C1723   1.377       .  A
C1723      C1724   1.400       .  A
C1723      H1727   1.081       .  S
C1724      C1725   1.434       .  A
C1725      H1728   1.078       .  S
C1729      C1730   1.400       .  A
C1729      C1734   1.413       .  A
C1730      C1731   1.393       .  A
C1730      H1735   1.085       .  S
C1731      C1732   1.414       .  A
C1731      C1738   1.446       .  S
C1732      C1733   1.400       .  A
C1733      C1734   1.401       .  A
C1733      H1736   1.083       .  S
C1734      C1737   1.443       .  S
C1737      N1739   1.157       .  T
C1738      N2364   1.157       .  T
N1740      C2362   1.157   1_545  T
C1741      C1742   1.400       .  A
C1741      C1746   1.415       .  A
C1742      C1743   1.405       .  A
C1742      H1747   1.085       .  S
C1743      C1744   1.424       .  A
C1743      C1750   1.441       .  S
C1744      C1745   1.406       .  A
C1745      C1746   1.401       .  A
C1745      H1748   1.084       .  S
C1746      C1749   1.443       .  S
C1749      N1751   1.156       .  T
C1750      N1752   1.156       .  T
C1753      C1754   1.409       .  A
C1753      C1758   1.415       .  A
C1754      C1755   1.405       .  A
C1754      H1759   1.084       .  S
C1755      C1756   1.411       .  A
C1755      C1762   1.440       .  S
C1756      C1757   1.406       .  A
C1757      C1758   1.396       .  A
C1757      H1760   1.085       .  S
C1761      N1763   1.157       .  T
C1762      N1764   1.157       .  T
C1765      C1766   1.401       .  A
C1765      C1770   1.418       .  A
C1766      C1767   1.401       .  A
C1766      H1771   1.085       .  S
C1767      C1768   1.420       .  A
C1767      C1774   1.435       .  S
C1768      C1769   1.407       .  A
C1769      C1770   1.403       .  A
C1769      H1772   1.085       .  S
C1770      C1773   1.445       .  S
C1773      N1775   1.157       .  T
C1774      N1776   1.155       .  T
C1777      C1778   1.405       .  A
C1777      C1782   1.413       .  A
C1778      C1779   1.397       .  A
C1778      H1783   1.085       .  S
C1779      C1780   1.412       .  A
C1779      C1786   1.439       .  S
C1780      C1781   1.409       .  A
C1781      C1782   1.401       .  A
C1781      H1784   1.085       .  S
C1782      C1785   1.444       .  S
C1785      N1787   1.157       .  T
C1786      N1788   1.156       .  T
C1789      C1790   1.406       .  A
C1789      C1794   1.414       .  A
C1790      C1791   1.402       .  A
C1790      H1795   1.084       .  S
C1791      C1792   1.408       .  A
C1791      C1798   1.440       .  S
C1792      C1793   1.404       .  A
C1793      C1794   1.396       .  A
C1793      H1796   1.086       .  S
C1794      C1797   1.445       .  S
C1797      N1799   1.157       .  T
C1798      N1800   1.156       .  T
C1801      C1802   1.401       .  A
C1801      C1806   1.416       .  A
C1802      C1803   1.396       .  A
C1802      H1807   1.085       .  S
C1803      C1804   1.418       .  A
C1803      C1810   1.445       .  S
C1804      C1805   1.401       .  A
C1805      C1806   1.401       .  A
C1805      H1808   1.085       .  S
C1806      C1809   1.441       .  S
C1809      N1811   1.156       .  T
C1810      N1812   1.157       .  T
C1813      C1814   1.400       .  A
C1813      C1818   1.413       .  A
C1814      C1815   1.399       .  A
C1814      H1819   1.085       .  S
C1815      C1816   1.421       .  A
C1815      C1822   1.442       .  S
C1816      C1817   1.408       .  A
C1817      C1818   1.401       .  A
C1817      H1820   1.084       .  S
C1818      C1821   1.445       .  S
C1821      N1823   1.157       .  T
C1822      N1824   1.157       .  T
C1825      C1826   1.400       .  A
C1825      C1830   1.417       .  A
C1826      C1827   1.402       .  A
C1826      H1831   1.085       .  S
C1827      C1828   1.424       .  A
C1827      C1834   1.439       .  S
C1828      C1829   1.408       .  A
C1829      C1830   1.402       .  A
C1829      H1832   1.085       .  S
C1830      C1833   1.445       .  S
C1833      N1835   1.157       .  T
C1837      C1838   1.403       .  A
C1837      C1842   1.416       .  A
C1838      C1839   1.398       .  A
C1838      H1843   1.085       .  S
C1839      C1840   1.417       .  A
C1839      C1846   1.446       .  S
C1840      C1841   1.401       .  A
C1841      C1842   1.401       .  A
C1841      H1844   1.085       .  S
C1842      C1845   1.439       .  S
C1845      N1847   1.155       .  T
C1846      N1848   1.157   1_655  T
C1849      C1850   1.400       .  A
C1849      C1854   1.415       .  A
C1850      C1851   1.395       .  A
C1850      H1855   1.085       .  S
C1851      C1852   1.415       .  A
C1851      C1858   1.445   1_545  S
C1852      C1853   1.400       .  A
C1853      C1854   1.397       .  A
C1853      H1856   1.085       .  S
C1854      C1857   1.442       .  S
C1857      N1859   1.157       .  T
C1858      N1860   1.157       .  T
C1861      C1862   1.407       .  A
C1861      C1866   1.423       .  A
C1862      C1863   1.402       .  A
C1862      H1867   1.084       .  S
C1863      C1864   1.416       .  A
C1863      C1870   1.445       .  S
C1864      C1865   1.401       .  A
C1865      C1866   1.405       .  A
C1865      H1868   1.085       .  S
C1866      C1869   1.441       .  S
C1869      N2495   1.157       .  T
C1870      N1872   1.157       .  T
N1871      C2493   1.157       .  T
O1873      C1894   1.285       .  A
O1874      C1883   1.260   1_556  A
O1874     Ni1897   1.892       .  S
O1875     Ni1879   1.898       .  S
O1875     Ni1897   1.864       .  S
O1875      H1898   0.966       .  S
C1876      O1893   1.284       .  A
C1876      O1885   1.286       .  A
C1876      C2088   1.494       .  S
O1877      C1883   1.283       .  A
O1878      C1880   1.271       .  A
Ni1879     O1882   1.944       .  S
C1880      O1890   1.270       .  A
C1880      C2095   1.493       .  S
O1881      C1887   1.283       .  A
O1881     Ni1897   1.913       .  S
O1882      C1887   1.286       .  A
O1884      C1886   1.270       .  A
O1885     Ni1896   1.945       .  S
C1886      O1892   1.266       .  A
C1886      C2290   1.499       .  S
C1887      C2283   1.493       .  S
H1888      O1889   0.966       .  S
O1889     Ni1891   1.863       .  S
O1889     Ni1896   1.887       .  S
Ni1891     O1895   1.894       .  S
Ni1891     O1893   1.916       .  S
C1894      O1895   1.263   1_556  A
C1894      C2321   1.473       .  S
O1899      C1920   1.275       .  A
O1899     Ni1905   1.926       .  S
O1900      C1909   1.259       .  A
O1900     Ni1923   1.884   1_554  S
O1901     Ni1905   1.899       .  S
O1901     Ni1923   1.869       .  S
O1901     Ni1917   1.935   1_556  S
O1901      H1924   0.966       .  S
C1902      O1919   1.283       .  A
C1902      O1911   1.285       .  A
C1902      C2140   1.484       .  S
O1903      C1909   1.278       .  A
O1903     Ni1922   1.927       .  S
O1904      C1906   1.270       .  A
O1904     Ni1922   1.924       .  S
Ni1905     O1908   1.953       .  S
Ni1905     O1910   1.907       .  S
C1906      O1916   1.274       .  A
C1906      C2149   1.507       .  S
O1907      C1913   1.276       .  A
O1907     Ni1923   1.895       .  S
O1908      C1913   1.288       .  A
C1909      C2104   1.452       .  S
O1910      C1912   1.266       .  A
O1911     Ni1922   1.939       .  S
C1912      O1918   1.276       .  A
C1912      C2301   1.497       .  S
C1913      C2312   1.489       .  S
H1914      O1915   0.967       .  S
O1915     Ni1923   1.926   1_554  S
O1915     Ni1917   1.865       .  S
O1915     Ni1922   1.897       .  S
O1916     Ni1917   1.935       .  S
Ni1917     O1921   1.892   1_554  S
Ni1917     O1919   1.906       .  S
O1918     Ni1923   1.936       .  S
C1920      O1921   1.260       .  A
C1920      C2346   1.454       .  S
O1925      C1946   1.276   1_545  A
O1925     Ni1931   1.930   1_545  S
O1926      C1935   1.260   1_545  A
O1926     Ni1949   1.881   1_545  S
O1927     Ni1931   1.892       .  S
O1927     Ni1949   1.871       .  S
O1927      H1950   0.964       .  S
C1928      O1945   1.276       .  A
C1928      O1937   1.287       .  A
C1928      C2023   1.482       .  S
O1929      C1935   1.273       .  A
O1930      C1932   1.265       .  A
Ni1931     O1934   1.942       .  S
C1932      O1942   1.281       .  A
C1932      C2014   1.507       .  S
O1933      C1939   1.278       .  A
O1933     Ni1949   1.902       .  S
O1934      C1939   1.287       .  A
C1935      C2061   1.443       .  S
O1936      C1938   1.266       .  A
O1937     Ni1948   1.942       .  S
C1938      O1944   1.279       .  A
C1938      C2245   1.507       .  S
C1939      C2258   1.485       .  S
H1940      O1941   0.968       .  S
O1941     Ni1943   1.868       .  S
O1941     Ni1948   1.890       .  S
Ni1943     O1945   1.898       .  S
C1946      O1947   1.260       .  A
C1946      C2211   1.448       .  S
O1951      C1972   1.280       .  A
O1952      C1961   1.259       .  A
O1952     Ni1975   1.883   1_554  S
O1953     Ni1957   1.896       .  S
O1953     Ni1975   1.869       .  S
O1953      H1976   0.966       .  S
C1954      O1971   1.280       .  A
C1954      O1963   1.285       .  A
C1954      C2122   1.494       .  S
O1955      C1961   1.282       .  A
O1956      C1958   1.271       .  A
Ni1957     O1960   1.939       .  S
C1958      O1968   1.275       .  A
C1958      C2113   1.508       .  S
O1959      C1965   1.282       .  A
O1959     Ni1975   1.919       .  S
O1960      C1965   1.282       .  A
C1961      C2158   1.458       .  S
O1962      C1964   1.271       .  A
O1963     Ni1974   1.946       .  S
C1964      O1970   1.275       .  A
C1964      C2339   1.506       .  S
C1965      C2326   1.491       .  S
H1966      O1967   0.966       .  S
O1967     Ni1969   1.868       .  S
O1967     Ni1974   1.895       .  S
Ni1969     O1973   1.875   1_554  S
Ni1969     O1971   1.919       .  S
C1972      O1973   1.257       .  A
C1972      C2274   1.447       .  S
O1977      C1998   1.278       .  A
O1978      C1987   1.259       .  A
O1979     Ni1983   1.893       .  S
O1979     Ni2001   1.869       .  S
O1979      H2002   0.967       .  S
C1980      O1997   1.285       .  A
C1980      O1989   1.288       .  A
C1980      C2220   1.505       .  S
O1981      C1987   1.279   1_455  A
O1981     Ni2000   1.930   1_455  S
O1982      C1984   1.267       .  A
Ni1983     O1986   1.959       .  S
C1984      O1994   1.273       .  A
C1984      C2227   1.497       .  S
O1985      C1991   1.284       .  A
O1985     Ni2001   1.932       .  S
O1986      C1991   1.288       .  A
C1987      C2265   1.446       .  S
O1988      C1990   1.266       .  A
O1989     Ni2000   1.954       .  S
C1990      O1996   1.271       .  A
C1990      C2041   1.490       .  S
C1991      C2050   1.510       .  S
H1992      O1993   0.966       .  S
O1993     Ni1995   1.864       .  S
O1993     Ni2000   1.890       .  S
Ni1995     O1999   1.878   1_655  S
Ni1995     O1997   1.932       .  S
C1998      O1999   1.260   1_655  A
C1998      C2005   1.449   1_655  S
C2003      C2068   1.517       .  S
C2003      C2004   1.407       .  A
C2004      H2009   1.077       .  S
C2005      C2006   1.374   1_455  A
C2006      C2007   1.408       .  A
C2006      H2010   1.080       .  S
C2007      C2025   1.517       .  S
C2007      C2008   1.433   1_655  A
C2008      H2011   1.079       .  S
C2012      C2488   1.494       .  S
C2012      C2013   1.414       .  A
C2012      C2017   1.402       .  A
C2013      C2014   1.418       .  A
C2013      H2018   1.083       .  S
C2014      C2015   1.406       .  A
C2015      C2016   1.423       .  A
C2015      H2019   1.078       .  S
C2016      C2032   1.504       .  S
C2016      C2017   1.396       .  A
C2017      H2020   1.082       .  S
C2021      C2473   1.478       .  S
C2021      C2022   1.402       .  A
C2021      C2026   1.419       .  A
C2022      C2023   1.389       .  A
C2022      H2027   1.083       .  S
C2023      C2024   1.400       .  A
C2024      C2025   1.414       .  A
C2024      H2028   1.080       .  S
C2025      C2026   1.411       .  A
C2026      H2029   1.082       .  S
C2030      C2043   1.499       .  S
C2030      C2031   1.429       .  A
C2030      C2035   1.411       .  A
C2031      C2032   1.435       .  A
C2031      H2036   1.080       .  S
C2032      C2033   1.408       .  A
C2033      C2034   1.388       .  A
C2033      H2037   1.080       .  S
C2034      C2175   1.477       .  S
C2034      C2035   1.385       .  A
C2035      H2038   1.081       .  S
C2039      C2461   1.491       .  S
C2039      C2040   1.404       .  A
C2039      C2044   1.410       .  A
C2040      C2041   1.406       .  A
C2040      H2045   1.083       .  S
C2041      C2042   1.402       .  A
C2042      C2043   1.417       .  A
C2042      H2046   1.081       .  S
C2043      C2044   1.404       .  A
C2044      H2047   1.083       .  S
C2048      C2449   1.497       .  S
C2048      C2049   1.420       .  A
C2048      C2053   1.410       .  A
C2049      C2050   1.411       .  A
C2049      H2054   1.083       .  S
C2050      C2051   1.410       .  A
C2051      C2052   1.417       .  A
C2051      H2055   1.081       .  S
C2052      C2059   1.513       .  S
C2052      C2053   1.398       .  A
C2053      H2056   1.079       .  S
C2057      C2079   1.512       .  S
C2057      C2062   1.405       .  A
C2058      C2059   1.437       .  A
C2058      H2063   1.080       .  S
C2059      C2060   1.405       .  A
C2060      C2061   1.374       .  A
C2060      H2064   1.079       .  S
C2062      H2065   1.083       .  S
C2066      C2437   1.486       .  S
C2066      C2067   1.410       .  A
C2066      C2071   1.413       .  A
C2067      C2068   1.402       .  A
C2067      H2072   1.080       .  S
C2068      C2069   1.419       .  A
C2069      C2070   1.406       .  A
C2069      H2073   1.075       .  S
C2070      C2172   1.500       .  S
C2070      C2071   1.404       .  A
C2071      H2074   1.083       .  S
C2075      C2425   1.485       .  S
C2075      C2076   1.407       .  A
C2075      C2080   1.419       .  A
C2076      C2077   1.395       .  A
C2076      H2081   1.083       .  S
C2077      C2168   1.486       .  S
C2077      C2078   1.401       .  A
C2078      C2079   1.411       .  A
C2078      H2082   1.082       .  S
C2079      C2080   1.408       .  A
C2080      H2083   1.082       .  S
C2084      C2485   1.505       .  S
C2084      C2085   1.424       .  A
C2084      C2089   1.417       .  A
C2085      C2086   1.410       .  A
C2085      H2090   1.080       .  S
C2086      C2106   1.515       .  S
C2086      C2087   1.405       .  A
C2087      C2088   1.399       .  A
C2087      H2091   1.080       .  S
C2088      C2089   1.405       .  A
C2089      H2092   1.082       .  S
C2093      C2476   1.477       .  S
C2093      C2094   1.409       .  A
C2093      C2098   1.396       .  A
C2094      C2095   1.410       .  A
C2094      H2099   1.082       .  S
C2095      C2096   1.406       .  A
C2096      C2097   1.417       .  A
C2096      H2100   1.080       .  S
C2097      C2160   1.492       .  S
C2097      C2098   1.389       .  A
C2098      H2101   1.081       .  S
C2102      C2115   1.503       .  S
C2102      C2103   1.398       .  A
C2102      C2107   1.435       .  A
C2103      C2104   1.376       .  A
C2103      H2108   1.081       .  S
C2104      C2105   1.383       .  A
C2105      C2106   1.414       .  A
C2105      H2109   1.083       .  S
C2106      C2107   1.429       .  A
C2107      H2110   1.078       .  S
C2111      C2464   1.488       .  S
C2111      C2112   1.415       .  A
C2111      C2116   1.402       .  A
C2112      C2113   1.411       .  A
C2112      H2117   1.079       .  S
C2113      C2114   1.407       .  A
C2114      C2115   1.424       .  A
C2114      H2118   1.079       .  S
C2115      C2116   1.391       .  A
C2116      H2119   1.081       .  S
C2120      C2452   1.510       .  S
C2120      C2121   1.413       .  A
C2120      C2125   1.421       .  A
C2121      C2122   1.402       .  A
C2121      H2126   1.078       .  S
C2122      C2123   1.402       .  A
C2123      C2124   1.414       .  A
C2123      H2127   1.077       .  S
C2124      C2133   1.516       .  S
C2124      C2125   1.411       .  A
C2125      H2128   1.081       .  S
C2129      C2151   1.493       .  S
C2129      C2130   1.402       .  A
C2130      H2135   1.082       .  S
C2131      C2132   1.391   1_545  A
C2132      C2133   1.416       .  A
C2132      H2136   1.078       .  S
C2133      C2134   1.429   1_565  A
C2134      H2137   1.080       .  S
C2138      C2440   1.497       .  S
C2138      C2139   1.414       .  A
C2138      C2143   1.420       .  A
C2139      C2140   1.402       .  A
C2139      H2144   1.082       .  S
C2140      C2141   1.398       .  A
C2141      C2142   1.399       .  A
C2141      H2145   1.078       .  S
C2142      C2156   1.513       .  S
C2142      C2143   1.410       .  A
C2143      H2146   1.079       .  S
C2147      C2428   1.484       .  S
C2147      C2148   1.412       .  A
C2147      C2152   1.395       .  A
C2148      C2149   1.415       .  A
C2148      H2153   1.081       .  S
C2149      C2150   1.411       .  A
C2150      C2151   1.423       .  A
C2150      H2154   1.081       .  S
C2151      C2152   1.388       .  A
C2152      H2155   1.083       .  S
C2156      C2157   1.419       .  A
C2157      H2162   1.078       .  S
C2158      C2159   1.378       .  A
C2159      C2160   1.400       .  A
C2159      H2163   1.081       .  S
C2160      C2161   1.428       .  A
C2161      H2164   1.076       .  S
O2165      C2186   1.286       .  A
O2165     Ni2171   1.946       .  S
O2166      C2175   1.259       .  A
O2166     Ni2189   1.888       .  S
O2167     Ni2171   1.897       .  S
O2167     Ni2189   1.870       .  S
O2167     Ni2183   1.917       .  S
O2167      H2190   0.966       .  S
C2168      O2185   1.278       .  A
C2168      O2177   1.288       .  A
O2169      C2175   1.284       .  A
O2169     Ni2188   1.940       .  S
O2170      C2172   1.268       .  A
O2170     Ni2188   1.926       .  S
Ni2171     O2174   1.955       .  S
Ni2171     O2176   1.923       .  S
C2172      O2182   1.270       .  A
O2173      C2179   1.277       .  A
O2173     Ni2189   1.899       .  S
O2174      C2179   1.289       .  A
O2176      C2178   1.267       .  A
O2177     Ni2188   1.947       .  S
C2178      O2184   1.273       .  A
C2178      C2202   1.499       .  S
C2179      C2191   1.490       .  S
H2180      O2181   0.966       .  S
O2181     Ni2189   1.916       .  S
O2181     Ni2183   1.869       .  S
O2181     Ni2188   1.897       .  S
O2182     Ni2183   1.921       .  S
Ni2183     O2187   1.881       .  S
Ni2183     O2185   1.904       .  S
O2184     Ni2189   1.925       .  S
C2186      O2187   1.257       .  A
C2186      C2238   1.476       .  S
C2191      C2192   1.404       .  A
C2191      C2196   1.397       .  A
C2192      C2193   1.408       .  A
C2192      H2197   1.081       .  S
C2193      C2209   1.511       .  S
C2193      C2194   1.406       .  A
C2194      C2195   1.415       .  A
C2194      H2198   1.081       .  S
C2195      C2413   1.483       .  S
C2195      C2196   1.410       .  A
C2196      H2199   1.080       .  S
C2200      C2404   1.491       .  S
C2200      C2201   1.416       .  A
C2200      C2205   1.409       .  A
C2201      C2202   1.409       .  A
C2201      H2206   1.083       .  S
C2202      C2203   1.404       .  A
C2203      C2204   1.414       .  A
C2203      H2207   1.078       .  S
C2204      C2263   1.510       .  S
C2204      C2205   1.398       .  A
C2205      H2208   1.080       .  S
C2209      C2210   1.408       .  A
C2210      C2211   1.373       .  A
C2210      H2215   1.080       .  S
C2212      C2213   1.404       .  A
C2212      H2216   1.081       .  S
C2213      C2222   1.505       .  S
C2213      C2214   1.431       .  A
C2214      H2217   1.080       .  S
C2218      C2389   1.496       .  S
C2218      C2219   1.419       .  A
C2218      C2223   1.408       .  A
C2219      C2220   1.411       .  A
C2219      H2224   1.083       .  S
C2220      C2221   1.408       .  A
C2221      C2222   1.412       .  A
C2221      H2225   1.082       .  S
C2222      C2223   1.398       .  A
C2223      H2226   1.079       .  S
C2227      C2228   1.409       .  A
C2227      C2232   1.404       .  A
C2228      C2229   1.409       .  A
C2228      H2233   1.083       .  S
C2229      C2377   1.494       .  S
C2229      C2230   1.410       .  A
C2230      C2231   1.401       .  A
C2230      H2234   1.081       .  S
C2231      C2236   1.503       .  S
C2231      C2232   1.419       .  A
C2232      H2235   1.081       .  S
C2236      C2237   1.408       .  A
C2236      C2241   1.433       .  A
C2237      C2238   1.383       .  A
C2237      H2242   1.082       .  S
C2238      C2239   1.388       .  A
C2239      C2240   1.409       .  A
C2239      H2243   1.079       .  S
C2240      C2247   1.507       .  S
C2240      C2241   1.441       .  A
C2241      H2244   1.080       .  S
C2245      C2246   1.409       .  A
C2245      C2250   1.417       .  A
C2246      C2247   1.425       .  A
C2246      H2251   1.078       .  S
C2247      C2248   1.396       .  A
C2248      C2249   1.402       .  A
C2248      H2252   1.082       .  S
C2249      C2365   1.494       .  S
C2249      C2250   1.412       .  A
C2250      H2253   1.083       .  S
C2254      C2353   1.473       .  S
C2254      C2255   1.415       .  A
C2254      C2259   1.403       .  A
C2255      C2256   1.408       .  A
C2255      H2260   1.082       .  S
C2256      C2267   1.515       .  S
C2256      C2257   1.412       .  A
C2257      C2258   1.403       .  A
C2257      H2261   1.081       .  S
C2258      C2259   1.394       .  A
C2259      H2262   1.084       .  S
C2263      C2264   1.405       .  A
C2263      C2268   1.436       .  A
C2264      C2265   1.372       .  A
C2264      H2269   1.080       .  S
C2266      C2267   1.407       .  A
C2266      H2270   1.079       .  S
C2268      H2271   1.079       .  S
C2272      C2310   1.516       .  S
C2272      C2273   1.408       .  A
C2273      H2278   1.080       .  S
C2274      C2275   1.374       .  A
C2275      C2276   1.405       .  A
C2275      H2279   1.074       .  S
C2276      C2294   1.518       .  S
C2276      C2277   1.439       .  A
C2277      H2280   1.075       .  S
C2281      C2368   1.504       .  S
C2281      C2282   1.416       .  A
C2281      C2286   1.425       .  A
C2282      C2283   1.404       .  A
C2282      H2287   1.082       .  S
C2283      C2284   1.399       .  A
C2284      C2285   1.404       .  A
C2284      H2288   1.079       .  S
C2285      C2344   1.517       .  S
C2285      C2286   1.410       .  A
C2286      H2289   1.080       .  S
C2290      C2291   1.405       .  A
C2290      C2295   1.411       .  A
C2291      C2292   1.407       .  A
C2291      H2296   1.081       .  S
C2292      C2356   1.475       .  S
C2292      C2293   1.400       .  A
C2293      C2294   1.397       .  A
C2293      H2297   1.078       .  S
C2294      C2295   1.423       .  A
C2295      H2298   1.072       .  S
C2299      C2416   1.482       .  S
C2299      C2300   1.411       .  A
C2299      C2304   1.396       .  A
C2300      C2301   1.417       .  A
C2300      H2305   1.083       .  S
C2301      C2302   1.405       .  A
C2302      C2303   1.416       .  A
C2302      H2306   1.081       .  S
C2303      C2317   1.486       .  S
C2303      C2304   1.389       .  A
C2304      H2307   1.084       .  S
C2308      C2401   1.489       .  S
C2308      C2309   1.419       .  A
C2308      C2313   1.413       .  A
C2309      C2310   1.408       .  A
C2309      H2314   1.079       .  S
C2310      C2311   1.406       .  A
C2311      C2312   1.405       .  A
C2311      H2315   1.081       .  S
C2312      C2313   1.396       .  A
C2313      H2316   1.083       .  S
C2317      C2318   1.428       .  A
C2317      C2322   1.404       .  A
C2318      H2323   1.081       .  S
C2319      C2330   1.506       .  S
C2319      C2320   1.415       .  A
C2320      H2324   1.080       .  S
C2321      C2322   1.384       .  A
C2322      H2325   1.082       .  S
C2326      C2327   1.405       .  A
C2326      C2331   1.398       .  A
C2327      C2328   1.414       .  A
C2327      H2332   1.079       .  S
C2328      C2392   1.506       .  S
C2328      C2329   1.417       .  A
C2329      C2330   1.409       .  A
C2329      H2333   1.082       .  S
C2330      C2331   1.410       .  A
C2331      H2334   1.079       .  S
C2335      C2380   1.494       .  S
C2335      C2336   1.407       .  A
C2335      C2340   1.416       .  A
C2336      C2337   1.393       .  A
C2336      H2341   1.081       .  S
C2337      C2348   1.506       .  S
C2337      C2338   1.422       .  A
C2338      C2339   1.405       .  A
C2338      H2342   1.079       .  S
C2339      C2340   1.410       .  A
C2340      H2343   1.078       .  S
C2344      C2345   1.416       .  A
C2344      C2349   1.430       .  A
C2345      C2346   1.383       .  A
C2345      H2350   1.082       .  S
C2346      C2347   1.377       .  A
C2347      C2348   1.400       .  A
C2347      H2351   1.081       .  S
C2348      C2349   1.434       .  A
C2349      H2352   1.078       .  S
C2353      C2354   1.400       .  A
C2353      C2358   1.413       .  A
C2354      C2355   1.393       .  A
C2354      H2359   1.085       .  S
C2355      C2356   1.414       .  A
C2355      C2362   1.446       .  S
C2356      C2357   1.401       .  A
C2357      C2358   1.401       .  A
C2357      H2360   1.083       .  S
C2358      C2361   1.443       .  S
C2361      N2363   1.157       .  T
C2365      C2366   1.400       .  A
C2365      C2370   1.415       .  A
C2366      C2367   1.405       .  A
C2366      H2371   1.085       .  S
C2367      C2368   1.424       .  A
C2367      C2374   1.441       .  S
C2368      C2369   1.406       .  A
C2369      C2370   1.401       .  A
C2369      H2372   1.084       .  S
C2370      C2373   1.443       .  S
C2373      N2375   1.156       .  T
C2374      N2376   1.156       .  T
C2377      C2378   1.409       .  A
C2377      C2382   1.415       .  A
C2378      C2379   1.405       .  A
C2378      H2383   1.084       .  S
C2379      C2380   1.411       .  A
C2379      C2386   1.440       .  S
C2380      C2381   1.406       .  A
C2381      C2382   1.396       .  A
C2381      H2384   1.085       .  S
C2385      N2387   1.157       .  T
C2386      N2388   1.157       .  T
C2389      C2390   1.401       .  A
C2389      C2394   1.418       .  A
C2390      C2391   1.401       .  A
C2390      H2395   1.085       .  S
C2391      C2392   1.420       .  A
C2391      C2398   1.435       .  S
C2392      C2393   1.407       .  A
C2393      C2394   1.403       .  A
C2393      H2396   1.085       .  S
C2394      C2397   1.445       .  S
C2397      N2399   1.157       .  T
C2398      N2400   1.155       .  T
C2401      C2402   1.405       .  A
C2401      C2406   1.413       .  A
C2402      C2403   1.397       .  A
C2402      H2407   1.085       .  S
C2403      C2404   1.412       .  A
C2403      C2410   1.439       .  S
C2404      C2405   1.409       .  A
C2405      C2406   1.401       .  A
C2405      H2408   1.085       .  S
C2406      C2409   1.444       .  S
C2409      N2411   1.157       .  T
C2410      N2412   1.156       .  T
C2413      C2414   1.406       .  A
C2413      C2418   1.414       .  A
C2414      C2415   1.402       .  A
C2414      H2419   1.084       .  S
C2415      C2416   1.408       .  A
C2415      C2422   1.440       .  S
C2416      C2417   1.404       .  A
C2417      C2418   1.396       .  A
C2417      H2420   1.086       .  S
C2418      C2421   1.445       .  S
C2421      N2423   1.157       .  T
C2422      N2424   1.156       .  T
C2425      C2426   1.401       .  A
C2425      C2430   1.416       .  A
C2426      C2427   1.396       .  A
C2426      H2431   1.085       .  S
C2427      C2428   1.418       .  A
C2427      C2434   1.445       .  S
C2428      C2429   1.401       .  A
C2429      C2430   1.401       .  A
C2429      H2432   1.085       .  S
C2430      C2433   1.441       .  S
C2433      N2435   1.156       .  T
C2434      N2436   1.157       .  T
C2437      C2438   1.400       .  A
C2437      C2442   1.413       .  A
C2438      C2439   1.399       .  A
C2438      H2443   1.085       .  S
C2439      C2440   1.421       .  A
C2439      C2446   1.442       .  S
C2440      C2441   1.408       .  A
C2441      C2442   1.401       .  A
C2441      H2444   1.084       .  S
C2442      C2445   1.445       .  S
C2445      N2447   1.157       .  T
C2446      N2448   1.157       .  T
C2449      C2450   1.400       .  A
C2449      C2454   1.417       .  A
C2450      C2451   1.402       .  A
C2450      H2455   1.085       .  S
C2451      C2452   1.424       .  A
C2451      C2458   1.439       .  S
C2452      C2453   1.408       .  A
C2453      C2454   1.402       .  A
C2453      H2456   1.085       .  S
C2454      C2457   1.445       .  S
C2457      N2459   1.157       .  T
C2461      C2462   1.403       .  A
C2461      C2466   1.416       .  A
C2462      C2463   1.398       .  A
C2462      H2467   1.085       .  S
C2463      C2464   1.417       .  A
C2463      C2470   1.446       .  S
C2464      C2465   1.401       .  A
C2465      C2466   1.401       .  A
C2465      H2468   1.085       .  S
C2466      C2469   1.439       .  S
C2469      N2471   1.155       .  T
C2470      N2472   1.157   1_655  T
C2473      C2474   1.400       .  A
C2473      C2478   1.415       .  A
C2474      C2475   1.395       .  A
C2474      H2479   1.085       .  S
C2475      C2476   1.415       .  A
C2475      C2482   1.445       .  S
C2476      C2477   1.400       .  A
C2477      C2478   1.397       .  A
C2477      H2480   1.085       .  S
C2478      C2481   1.442       .  S
C2481      N2483   1.157       .  T
C2482      N2484   1.157       .  T
C2485      C2486   1.407       .  A
C2485      C2490   1.423       .  A
C2486      C2487   1.402       .  A
C2486      H2491   1.084       .  S
C2487      C2488   1.416       .  A
C2487      C2494   1.445       .  S
C2488      C2489   1.401       .  A
C2489      C2490   1.405       .  A
C2489      H2492   1.085       .  S
C2490      C2493   1.441       .  S
C2494      N2496   1.157       .  T
