geometry optimzed in LAMMPS
_audit_creation_date              2020-11-30 
_audit_creation_method            'lammps2cif' 
_symmetry_space_group_name_H-M    'P1' 
_symmetry_Int_Tables_number       1 
_symmetry_cell_setting            triclinic 
loop_ 
_symmetry_equiv_pos_as_xyz 
  x,y,z 
_cell_length_a                    38.10749618579098 
_cell_length_b                    38.357429086877495 
_cell_length_c                    48.833096334569966 
_cell_angle_alpha                 90.01512434436351 
_cell_angle_beta                  90.37115657260317 
_cell_angle_gamma                 120.1897694179455 
loop_ 
_atom_site_label 
_atom_site_type_symbol 
_atom_site_fract_x 
_atom_site_fract_y 
_atom_site_fract_z 
_atom_site_charge 
C1          C  0.29493807  0.49656615  0.71518241     0.03060
C2          C  0.33163329  0.01468124  0.70062435    -0.13090
C3          C  0.36600349  0.04861785  0.71096980     0.00560
C4          C  0.36384317  0.06672072  0.73484741    -0.11610
C5          C  0.32939451  0.04850092  0.75092751     0.03050
C6          C  0.29403347  0.01371558  0.74086738    -0.11030
H7          H  0.33491249  0.50049432  0.68239560     0.08650
H8          H  0.39090247  0.09367244  0.74206879     0.06180
H9          H  0.26712968  0.99915330  0.75342739     0.06030
C10         C  0.09501922  0.13057359  0.67116394     0.03060
C11         C  0.05795940  0.11546421  0.68508962    -0.13090
C12         C  0.02222027  0.08360985  0.67429896     0.00560
C13         C  0.02304531  0.06445884  0.65055635    -0.11610
C14         C  0.05813703  0.07962878  0.63520372     0.03050
C15         C  0.09482949  0.11251805  0.64567370    -0.11030
H16         H  0.05576061  0.13066148  0.70313900     0.08650
H17         H  0.99493858  0.03895708  0.64308213     0.06180
H18         H  0.12218625  0.12507165  0.63354801     0.06030
C19         C  0.28074620  0.46653880  0.83620480     0.03060
C20         C  0.30298303  0.45200520  0.85046946    -0.13090
C21         C  0.31099093  0.42397844  0.83840008     0.00560
C22         C  0.29428674  0.40682310  0.81337316    -0.11610
C23         C  0.27021141  0.41824499  0.79894614     0.03050
C24         C  0.26357765  0.44881457  0.81022521    -0.11030
H25         H  0.31779310  0.46515712  0.86984048     0.08650
H26         H  0.30068156  0.38433440  0.80513257     0.06180
H27         H  0.24667429  0.45957905  0.79858096     0.06030
C28         C  0.44825093  0.33091570  0.88037802     0.03060
C29         C  0.42749432  0.34609154  0.86501492    -0.13090
C30         C  0.41835911  0.37369105  0.87653523     0.00560
C31         C  0.43306233  0.39032878  0.90204985    -0.11610
C32         C  0.45604245  0.37866934  0.91746961     0.03050
C33         C  0.46333834  0.34812996  0.90682306    -0.11030
H34         H  0.41419244  0.33340498  0.84521283     0.08650
H35         H  0.42589873  0.41247545  0.90991016     0.06180
H36         H  0.47901757  0.33687357  0.91934555     0.06030
C37         C  0.44880145  0.30199274  0.50255693     0.03060
C38         C  0.47186181  0.28798733  0.51631939    -0.13090
C39         C  0.47993516  0.26023642  0.50393075     0.00560
C40         C  0.46273354  0.24299701  0.47902479    -0.11610
C41         C  0.43799110  0.25403751  0.46503407     0.03050
C42         C  0.43113328  0.28423228  0.47668013    -0.11030
H43         H  0.98704830  0.30122939  0.53557812     0.08650
H44         H  0.46919679  0.22066998  0.47057175     0.06180
H45         H  0.41370857  0.29472554  0.46537438     0.06030
C46         C  0.11564175  0.16585750  0.54677696     0.03060
C47         C  0.09543554  0.18143841  0.53119384    -0.13090
C48         C  0.08680850  0.20955122  0.54249875     0.00560
C49         C  0.10118232  0.22592347  0.56814018    -0.11610
C50         C  0.12304841  0.21331759  0.58390296     0.03050
C51         C  0.13016053  0.18266027  0.57334898    -0.11030
H52         H  0.08224758  0.16877660  0.51136439     0.08650
H53         H  0.09435444  0.24834351  0.57593052     0.06180
H54         H  0.14519879  0.17092304  0.58607626     0.06030
C55         C  0.43132979  0.29751907  0.00461829     0.03060
C56         C  0.43015577  0.27954556  0.97876055    -0.13090
C57         C  0.39277565  0.24726164  0.96824722     0.00560
C58         C  0.35784047  0.23352983  0.98357974    -0.11610
C59         C  0.35832416  0.25246828  0.00772485     0.03050
C60         C  0.39465751  0.28244447  0.01904061    -0.11030
H61         H  0.45733061  0.29162160  0.96648142     0.08650
H62         H  0.32900493  0.20920798  0.97600748     0.06180
H63         H  0.39312520  0.29667797  0.03781087     0.06030
C64         C  0.12878514  0.16300820  0.04924619     0.03060
C65         C  0.16618322  0.17767630  0.03588000    -0.13090
C66         C  0.20185754  0.20781151  0.04768612     0.00560
C67         C  0.20108609  0.22700146  0.07133838    -0.11610
C68         C  0.16523421  0.21380073  0.08562761     0.03050
C69         C  0.12841894  0.18145218  0.07457813    -0.11030
H70         H  0.16867631  0.16328680  0.01748146     0.08650
H71         H  0.22958355  0.25149061  0.07920987     0.06180
H72         H  0.10051310  0.16982026  0.08600366     0.06030
C73         C  0.46273014  0.33138970  0.38177505     0.03060
C74         C  0.46178345  0.34886898  0.40733704    -0.13090
C75         C  0.49768217  0.38260577  0.41797342     0.00560
C76         C  0.03289873  0.39929632  0.40262573    -0.11610
C77         C  0.03495992  0.38091675  0.37886878     0.03050
C78         C  0.50007367  0.34805984  0.36798555    -0.11030
H79         H  0.43429800  0.33533730  0.41934989     0.08650
H80         H  0.06033162  0.42558002  0.41014152     0.06180
H81         H  0.00322685  0.33357451  0.34987609     0.06030
C82         C  0.26462926  0.46509183  0.33826775     0.03060
C83         C  0.22778146  0.44956302  0.35259532    -0.13090
C84         C  0.19191911  0.41747734  0.34203595     0.00560
C85         C  0.19247181  0.39842467  0.31814366    -0.11610
C86         C  0.22711327  0.41399282  0.30232922     0.03050
C87         C  0.26393841  0.44714632  0.31256816    -0.11030
H88         H  0.22577489  0.46461866  0.37078435     0.08650
H89         H  0.16436486  0.37272462  0.31086398     0.06180
H90         H  0.29098732  0.45998595  0.30011692     0.06030
C91         C  0.11702513  0.13573498  0.16899180     0.03060
C92         C  0.13964166  0.12132390  0.18292612    -0.13090
C93         C  0.14498142  0.09110769  0.17161216     0.00560
C94         C  0.12701024  0.07333667  0.14694543    -0.11610
C95         C  0.10385607  0.08578465  0.13234939     0.03050
C96         C  0.09862791  0.11736042  0.14338540    -0.11030
H97         H  0.15586747  0.13537548  0.20174217     0.08650
H98         H  0.13199411  0.04977383  0.13897064     0.06180
H99         H  0.08194926  0.12842421  0.13178273     0.06030
C100        C  0.28404464  0.50132956  0.21277637     0.03060
C101        C  0.26615303  0.01855488  0.19642092    -0.13090
C102        C  0.26106100  0.04971440  0.20641715     0.00560
C103        C  0.27547221  0.06615491  0.23207811    -0.11610
C104        C  0.29343651  0.05053927  0.24908414     0.03050
C105        C  0.29818634  0.01801699  0.23939360    -0.11030
H106        H  0.25245788  0.50550377  0.17677340     0.08650
H107        H  0.27067988  0.09021877  0.23925734     0.06180
H108        H  0.31085475  0.00468815  0.25288044     0.06030
C109        C  0.04202896  0.24825989  0.83525043     0.03060
C110        C  0.06090959  0.24798341  0.81014022    -0.13090
C111        C  0.09148660  0.28497902  0.79848052     0.00560
C112        C  0.10186213  0.32101254  0.81173000    -0.11610
C113        C  0.08270643  0.32142606  0.83547882     0.03050
C114        C  0.05461019  0.28571397  0.84791828    -0.11030
H115        H  0.05106057  0.21979901  0.79943479     0.08650
H116        H  0.12474767  0.34969410  0.80337825     0.06180
H117        H  0.04009999  0.28787554  0.86634331     0.06030
C118        C  0.17595297  0.04986044  0.87971361     0.03060
C119        C  0.15923609  0.01373143  0.86443035    -0.13090
C120        C  0.12896279  0.47765252  0.87541849     0.00560
C121        C  0.11148828  0.47703378  0.90022444    -0.11610
C122        C  0.12677080  0.01148239  0.91625110     0.03050
C123        C  0.15919046  0.04850073  0.90599053    -0.11030
H124        H  0.17252436  0.01229036  0.84521874     0.08650
H125        H  0.08719567  0.44842683  0.90773138     0.06180
H126        H  0.17241169  0.07522545  0.91880554     0.06030
C127        C  0.38094797  0.40070089  0.67158243     0.03060
C128        C  0.39735148  0.38041920  0.68614209    -0.13090
C129        C  0.43011849  0.37789287  0.67591774     0.00560
C130        C  0.44895834  0.39776483  0.65207798    -0.11610
C131        C  0.43223203  0.41530705  0.63579939     0.03050
C132        C  0.39845951  0.41783858  0.64576502    -0.11030
H133        H  0.38245073  0.36316066  0.70426801     0.08650
H134        H  0.47522971  0.39641517  0.64507512     0.06180
H135        H  0.38485602  0.43106370  0.63304463     0.06030
C136        C  0.01291521  0.23283196  0.71593272     0.03060
C137        C  0.99479249  0.21381362  0.74119815    -0.13090
C138        C  0.46125269  0.21625857  0.75163696     0.00560
C139        C  0.44551062  0.23579334  0.73637332    -0.11610
C140        C  0.46468292  0.25685513  0.71299744     0.03050
C141        C  0.99734801  0.25461523  0.70239724    -0.11030
H142        H  0.00762716  0.19906046  0.75310008     0.08650
H143        H  0.41934220  0.23710869  0.74364848     0.06180
H144        H  0.01256121  0.27282824  0.68466612     0.06030
C145        C  0.21132778  0.08230301  0.50246442     0.03060
C146        C  0.22944734  0.08207585  0.47696079    -0.13090
C147        C  0.26203198  0.11868503  0.46621033     0.00560
C148        C  0.27609992  0.15411682  0.48112699    -0.11610
C149        C  0.25720236  0.15469691  0.50494085     0.03050
C150        C  0.22644269  0.11940979  0.51622668    -0.11030
H151        H  0.21738221  0.05443751  0.46519202     0.08650
H152        H  0.30058530  0.18246825  0.47344095     0.06180
H153        H  0.21222195  0.12197404  0.53467086     0.06030
C154        C  0.34461054  0.38312331  0.54736773     0.03060
C155        C  0.32730604  0.38130845  0.57358067    -0.13090
C156        C  0.29663016  0.34351530  0.58440870     0.00560
C157        C  0.28476863  0.30866032  0.56934218    -0.11610
C158        C  0.30182094  0.31029349  0.54420264     0.03050
C159        C  0.32969181  0.34686149  0.53255238    -0.11030
H160        H  0.33861175  0.40847046  0.58580332     0.08650
H161        H  0.26250468  0.27940575  0.57731706     0.06180
H162        H  0.34273747  0.34595924  0.51309823     0.06030
C163        C  0.21417235  0.06818076  0.00512989     0.03060
C164        C  0.22992323  0.04751758  0.01994903    -0.13090
C165        C  0.26041397  0.04206965  0.00901966     0.00560
C166        C  0.27859038  0.05967819  0.98459213    -0.11610
C167        C  0.26372769  0.07940948  0.96874128     0.03050
C168        C  0.23142240  0.08421227  0.97906201    -0.11030
H169        H  0.21615429  0.03213430  0.03888952     0.08650
H170        H  0.30288272  0.05530858  0.97711662     0.06180
H171        H  0.21870919  0.09842586  0.96646298     0.06030
C172        C  0.34769743  0.40053764  0.04888178     0.03060
C173        C  0.33299709  0.42297664  0.03524002    -0.13090
C174        C  0.30444255  0.43012481  0.04746945     0.00560
C175        C  0.28694820  0.41247640  0.07201200    -0.11610
C176        C  0.29910785  0.38880711  0.08605190     0.03050
C177        C  0.33006156  0.38282106  0.07457923    -0.11030
H178        H  0.34645122  0.43859617  0.01630245     0.08650
H179        H  0.26410026  0.41834707  0.08038685     0.06180
H180        H  0.34131244  0.36617104  0.08594015     0.06030
C181        C  0.18029836  0.06666249  0.38198298     0.03060
C182        C  0.16328567  0.08676508  0.36792459    -0.13090
C183        C  0.13032403  0.08843203  0.37859619     0.00560
C184        C  0.11211004  0.06823294  0.40241301    -0.11610
C185        C  0.12904291  0.05021895  0.41805373     0.03050
C186        C  0.16297566  0.04842806  0.40763686    -0.11030
H187        H  0.17756696  0.10421452  0.34973122     0.08650
H188        H  0.08576379  0.06920055  0.40972438     0.06180
H189        H  0.17670046  0.03480534  0.41982205     0.06030
C190        C  0.04794082  0.23454219  0.33760859     0.03060
C191        C  0.06260433  0.21233255  0.35172033    -0.13090
C192        C  0.09395154  0.20780225  0.34107129     0.00560
C193        C  0.11314246  0.22730804  0.31725599    -0.11610
C194        C  0.09857778  0.24753849  0.30169838     0.03050
C195        C  0.06604386  0.25193343  0.31200666    -0.11030
H196        H  0.04744726  0.19531053  0.36987435     0.08650
H197        H  0.13831703  0.22425370  0.30996896     0.06180
H198        H  0.05386307  0.26696775  0.29974178     0.06030
C199        C  0.01229543  0.21661122  0.21379480     0.03060
C200        C  0.99765772  0.18009850  0.19930406    -0.13090
C201        C  0.46583518  0.14417130  0.20932265     0.00560
C202        C  0.44716749  0.14361275  0.23363819    -0.11610
C203        C  0.46150979  0.17819981  0.24951770     0.03050
C204        C  0.49398794  0.21538304  0.23941899    -0.11030
H205        H  0.01293998  0.17847455  0.18112592     0.08650
H206        H  0.42260922  0.11500852  0.24092651     0.06180
H207        H  0.00601666  0.24239651  0.25187998     0.06030
C208        C  0.37954500  0.41590120  0.16994842     0.03060
C209        C  0.39620014  0.45279499  0.18426487    -0.13090
C210        C  0.42759281  0.48791789  0.17311646     0.00560
C211        C  0.44505907  0.48694443  0.14868283    -0.11610
C212        C  0.42963417  0.45160233  0.13348197     0.03050
C213        C  0.39677765  0.41541312  0.14420316    -0.11030
H214        H  0.38257520  0.45546312  0.20297323     0.08650
H215        H  0.46985417  0.01500806  0.14088378     0.06180
H216        H  0.38366204  0.38796535  0.13213828     0.06030
C217        C  0.27871707  0.24801334  0.33752257     0.03060
C218        C  0.30100186  0.28426238  0.35233152    -0.13090
C219        C  0.31057574  0.32089582  0.34050018     0.00560
C220        C  0.29525610  0.32259437  0.31517654    -0.11610
C221        C  0.27105267  0.28769570  0.30029269     0.03050
C222        C  0.26305010  0.24986729  0.31127606    -0.11030
H223        H  0.31481315  0.28500597  0.37195256     0.08650
H224        H  0.30279367  0.35188431  0.30708945     0.06180
H225        H  0.24630544  0.22264398  0.29915729     0.06030
C226        C  0.44574147  0.05051344  0.38186070     0.03060
C227        C  0.42517662  0.01405607  0.36710147    -0.13090
C228        C  0.41797884  0.47817291  0.37891194     0.00560
C229        C  0.43413452  0.47770366  0.40415508    -0.11610
C230        C  0.45659141  0.01298959  0.41912079     0.03050
C231        C  0.46236360  0.04998692  0.40808053    -0.11030
H232        H  0.41072429  0.01231580  0.34756280     0.08650
H233        H  0.42833791  0.44893853  0.41223723     0.06180
H234        H  0.47795429  0.07739270  0.42013863     0.06030
C235        C  0.28072598  0.21574798  0.71418925     0.03060
C236        C  0.26351534  0.18016960  0.69832918    -0.13090
C237        C  0.25477727  0.14368659  0.71023879     0.00560
C238        C  0.26903596  0.14271529  0.73614865    -0.11610
C239        C  0.28999198  0.17763421  0.75173551     0.03050
C240        C  0.29545184  0.21459323  0.74094374    -0.11030
H241        H  0.25118364  0.17919016  0.67809946     0.08650
H242        H  0.26263426  0.11383233  0.74437683     0.06180
H243        H  0.30905448  0.24140166  0.75367173     0.06030
C244        C  0.10907155  0.41271515  0.67197727     0.03060
C245        C  0.12892724  0.44851589  0.68757932    -0.13090
C246        C  0.13984693  0.48551358  0.67557430     0.00560
C247        C  0.12572220  0.48746629  0.64980633    -0.11610
C248        C  0.10226453  0.45275800  0.63453181     0.03050
C249        C  0.09454047  0.41490425  0.64535453    -0.11030
H250        H  0.14124340  0.44887755  0.70770911     0.08650
H251        H  0.13382038  0.01683019  0.64157734     0.06180
H252        H  0.07912222  0.38800487  0.63277671     0.06030
C253        C  0.42998040  0.06379597  0.50213532     0.03060
C254        C  0.39227800  0.04065218  0.51506002    -0.13090
C255        C  0.35689770  0.03650071  0.50354124     0.00560
C256        C  0.35860767  0.05832435  0.48066080    -0.11610
C257        C  0.39440998  0.07973836  0.46613303     0.03050
C258        C  0.43084395  0.08318067  0.47700848    -0.11030
H259        H  0.38940229  0.02271559  0.53294917     0.08650
H260        H  0.33069041  0.05614396  0.47317565     0.06180
H261        H  0.45879873  0.09910950  0.46559889     0.06030
C262        C  0.12738238  0.39618380  0.54735979     0.03060
C263        C  0.16437416  0.41844692  0.53337155    -0.13090
C264        C  0.20047572  0.42356470  0.54442850     0.00560
C265        C  0.20008599  0.40305739  0.56775637    -0.11610
C266        C  0.16526055  0.38285964  0.58328460     0.03050
C267        C  0.12818390  0.37872206  0.57297847    -0.11030
H268        H  0.16623888  0.43534038  0.51512332     0.08650
H269        H  0.22838012  0.40578551  0.57492766     0.06180
H270        H  0.10097138  0.36379913  0.58523313     0.06030
C271        C  0.29465013  0.23007845  0.21308091     0.03060
C272        C  0.33108748  0.25106884  0.19837886    -0.13090
C273        C  0.36752537  0.25791291  0.20977265     0.00560
C274        C  0.36860330  0.24131704  0.23460542    -0.11610
C275        C  0.33359343  0.21976667  0.24986797     0.03050
C276        C  0.29605277  0.21394696  0.23913263    -0.11030
H277        H  0.33238857  0.26596059  0.17924455     0.08650
H278        H  0.39772362  0.24707895  0.24253621     0.06180
H279        H  0.26889195  0.19888740  0.25142787     0.06030
C280        C  0.09712875  0.39852786  0.17006805     0.03060
C281        C  0.06009806  0.37726460  0.18406288    -0.13090
C282        C  0.02443460  0.37208932  0.17245415     0.00560
C283        C  0.02477943  0.39028903  0.14804489    -0.11610
C284        C  0.06038707  0.41167899  0.13327076     0.03050
C285        C  0.09719086  0.41619806  0.14432405    -0.11030
H286        H  0.05775946  0.36119199  0.20283458     0.08650
H287        H  0.99617870  0.38575867  0.13994872     0.06180
H288        H  0.12482384  0.43143826  0.13251634     0.06030
C289        C  0.44367673  0.07931297  0.00469062     0.03060
C290        C  0.42706959  0.08055955  0.97867032    -0.13090
C291        C  0.43387942  0.11800283  0.96776033     0.00560
C292        C  0.45713884  0.15306329  0.98270047    -0.11610
C293        C  0.47442350  0.15223386  0.00742904     0.03050
C294        C  0.46634069  0.11591598  0.01912699    -0.11030
H295        H  0.41066075  0.05323384  0.96660687     0.08650
H296        H  0.46327219  0.18200946  0.97476695     0.06180
H297        H  0.48146510  0.11719947  0.03828298     0.06030
C298        C  0.11095021  0.38226697  0.04860513     0.03060
C299        C  0.12891653  0.38252348  0.07441224    -0.13090
C300        C  0.12384587  0.34592572  0.08558322     0.00560
C301        C  0.10135824  0.31030715  0.07097909    -0.11610
C302        C  0.08281029  0.30970133  0.04651948     0.03050
C303        C  0.08878994  0.34518603  0.03466505    -0.11030
H304        H  0.14501693  0.41024899  0.08609875     0.08650
H305        H  0.09673619  0.28193212  0.07902342     0.06180
H306        H  0.07270402  0.34283770  0.01574831     0.06030
C307        C  0.26270938  0.23010601  0.83683774     0.03060
C308        C  0.26239086  0.24707288  0.81088222    -0.13090
C309        C  0.22518833  0.24104361  0.79942789     0.00560
C310        C  0.18936478  0.21766620  0.81367714    -0.11610
C311        C  0.18965404  0.20118023  0.83871712     0.03050
C312        C  0.22583402  0.20898752  0.85103040    -0.11030
H313        H  0.29015918  0.26310442  0.79928965     0.08650
H314        H  0.16037316  0.21144346  0.80520589     0.06180
H315        H  0.22404999  0.19442586  0.87040271     0.06030
C316        C  0.45910250  0.06086251  0.88007324     0.03060
C317        C  0.49524976  0.08156678  0.86502796    -0.13090
C318        C  0.03228497  0.09117392  0.87691545     0.00560
C319        C  0.03423922  0.07662026  0.90240671    -0.11610
C320        C  0.49925124  0.05339873  0.91741239     0.03050
C321        C  0.46119336  0.04588638  0.90643108    -0.11030
H322        H  0.49579560  0.09469108  0.84527509     0.08650
H323        H  0.06377110  0.08411819  0.91058989     0.06180
H324        H  0.43405412  0.03023433  0.91869391     0.06030
O325        O  0.36901220  0.08456112  0.78981766    -0.86560
O326        O  0.23834298  0.11240648  0.88795840    -0.86720
O327        O  0.27710099  0.02680815  0.82953708    -0.88390
O328        O  0.28805054  0.13789133  0.79016292    -0.87150
O329        O  0.33813343  0.20450609  0.78772752    -0.86740
O330        O  0.30221996  0.01802213  0.87011599    -0.88110
O331        O  0.22954360  0.07874332  0.84738672    -0.86590
O332        O  0.30187129  0.06724584  0.78725725    -0.86170
Zr333      Zr  0.29627685  0.09844820  0.82797256     2.84310
O334        O  0.31272115  0.16192677  0.84371046    -1.08150
O335        O  0.34607176  0.08400121  0.84377796    -1.08880
C336        C  0.33318822  0.06703601  0.77808531     1.06550
C337        C  0.21640882  0.08381790  0.87067990     1.06490
C338        C  0.28508186  0.00550641  0.84626765     1.09480
C339        C  0.30590738  0.17345731  0.77862928     1.07260
H340        H  0.27356492  0.07460131  0.88318866     0.32810
O341        O  0.29791771  0.09703280  0.87598147    -1.29100
H342        H  0.36050231  0.14689287  0.79276032     0.32490
O343        O  0.36077938  0.14689617  0.81252380    -1.30780
O344        O  0.35180947  0.20790739  0.93017241    -0.86550
O345        O  0.48189173  0.18349711  0.82928513    -0.88050
O346        O  0.30182134  0.07704228  0.93053056    -0.86630
O347        O  0.32619324  0.23235140  0.83008789    -0.86680
O348        O  0.42399677  0.21797009  0.79015805    -0.86390
O349        O  0.39602665  0.05920265  0.88811780    -0.86190
O350        O  0.43434059  0.15826014  0.92995272    -0.86560
O351        O  0.45034358  0.26995684  0.88843544    -0.86030
O352        O  0.38618490  0.09091714  0.93175926    -0.87090
O353        O  0.42541763  0.27788069  0.84748712    -0.86250
O354        O  0.28173384  0.12438394  0.93194757    -0.86650
O355        O  0.42877994  0.08382543  0.84734525    -0.86370
O356        O  0.44097848  0.16844439  0.78731119    -0.86020
O357        O  0.29144366  0.20615830  0.87000223    -0.86430
O358        O  0.41965947  0.22785781  0.93196033    -0.86720
O359        O  0.49154470  0.21799019  0.86959027    -0.88060
Zr360      Zr  0.31198677  0.16124522  0.89145447     2.83100
Zr361      Zr  0.40962761  0.13121644  0.82792218     2.83500
Zr362      Zr  0.34751973  0.08377007  0.89155038     2.84090
Zr363      Zr  0.37717276  0.21119508  0.82802067     2.83360
Zr364      Zr  0.42603306  0.19700226  0.89150478     2.84220
O365        O  0.42483816  0.19533434  0.84376611    -1.08630
O366        O  0.36205571  0.14749143  0.90669554    -1.08130
C367        C  0.38801175  0.22693961  0.94150437     1.06520
C368        C  0.50355351  0.21321964  0.84575263     1.09140
C369        C  0.28306320  0.09415687  0.94175703     1.06700
C370        C  0.29676238  0.22431561  0.84665305     1.07060
C371        C  0.44158598  0.20016395  0.77836782     1.06640
C372        C  0.42433184  0.06600420  0.87077266     1.06190
C373        C  0.41741513  0.12246135  0.94121211     1.06620
C374        C  0.44332307  0.29129630  0.87105780     1.06130
H375        H  0.43458791  0.13241208  0.88296381     0.32810
O376        O  0.41191177  0.13421753  0.87590990    -1.29730
H377        H  0.37686674  0.23451551  0.88309112     0.32830
O378        O  0.37496168  0.21021859  0.87596573    -1.31120
O379        O  0.45586158  0.41959797  0.95488148    -0.86560
O380        O  0.11411891  0.44584373  0.05523659    -0.86720
O381        O  0.08873514  0.47094907  0.95444231    -0.88390
O382        O  0.49432098  0.35906219  0.99668678    -0.87150
O383        O  0.46120054  0.35096452  0.03730599    -0.86740
O384        O  0.10914202  0.03845280  0.95325837    -0.88110
O385        O  0.08787435  0.41124320  0.01500168    -0.86590
O386        O  0.50369472  0.39989786  0.95349569    -0.86170
Zr387      Zr  0.04296069  0.43208307  0.99338674     2.84310
O388        O  0.04423317  0.43352595  0.04116343    -1.08150
O389        O  0.02894265  0.48164571  0.97816726    -1.08880
C390        C  0.47249088  0.40017321  0.94392087     1.06550
C391        C  0.10577158  0.41637073  0.03861294     1.06490
C392        C  0.10762923  0.50686640  0.94332212     1.09480
C393        C  0.46585236  0.33758535  0.01392783     1.07260
H394        H  0.11687267  0.49651677  0.00191227     0.32810
O395        O  0.09258720  0.49475473  0.00912845    -1.29100
H396        H  0.45602730  0.39410972  0.00189570     0.32490
O397        O  0.47873135  0.41852283  0.00898142    -1.30780
O398        O  0.10328291  0.04606893  0.09442107    -0.86550
O399        O  0.44074271  0.01597187  0.99677392    -0.88050
O400        O  0.15246472  0.06962795  0.99716250    -0.86630
O401        O  0.52089980  0.41003521  0.09466988    -0.86680
O402        O  0.40844138  0.39708876  0.05520463    -0.86390
O403        O  0.04032704  0.05420999  0.95527540    -0.86190
O404        O  0.06477812  0.10215366  0.05554576    -0.86560
O405        O  0.46677138  0.99050062  0.09496637    -0.86030
O406        O  0.10011033  0.11051800  0.01592920    -0.87090
O407        O  0.44955501  0.42395133  0.09761016    -0.86250
O408        O  0.16095290  0.04447412  0.03769951    -0.86650
O409        O  0.47260618  0.00606160  0.95317839    -0.86370
O410        O  0.39944544  0.42313947  0.01524261    -0.86020
O411        O  0.08784868  0.45993084  0.09778878    -0.86430
O412        O  0.05336633  0.06272889  0.09747470    -0.86720
O413        O  0.46579073  0.04879370  0.03775796    -0.88060
Zr414      Zr  0.09414419  0.49755466  0.05715063     2.83100
Zr415      Zr  0.46498618  0.46735822  0.99327266     2.83500
Zr416      Zr  0.07902270  0.04531276  0.99378151     2.84090
Zr417      Zr  0.48072614  0.41752391  0.05696433     2.83360
Zr418      Zr  0.01378799  0.03005750  0.05724330     2.84220
O419        O  0.46598209  0.46674482  0.04109820    -1.08630
O420        O  0.07810317  0.04489965  0.04151425    -1.08130
C421        C  0.08597607  0.06419901  0.10610966     1.06520
C422        C  0.44801070  0.04440656  0.01415688     1.09140
C423        C  0.17415283  0.06256102  0.01437270     1.06700
C424        C  0.05659061  0.42792564  0.10656588     1.07060
C425        C  0.38694449  0.40537187  0.03874375     1.06640
C426        C  0.00417883  0.03723963  0.94392299     1.06190
C427        C  0.09459789  0.12337337  0.03922970     1.06620
C428        C  0.44907326  0.45510660  0.10665715     1.06130
H429        H  0.01432447  0.05386527  0.00220924     0.32810
O430        O  0.01608322  0.03135997  0.00925320    -1.29730
H431        H  0.03005399  0.48196201  0.09249235     0.32830
O432        O  0.02974530  0.48178566  0.07272461    -1.31120
O433        O  0.43731444  0.21425814  0.42713920    -0.86560
O434        O  0.27530562  0.18450751  0.32956695    -0.86720
O435        O  0.39923639  0.27000146  0.38809930    -0.88390
O436        O  0.30047718  0.15804842  0.42797369    -0.87150
O437        O  0.28300801  0.09144794  0.43065582    -0.86740
O438        O  0.43528563  0.27823687  0.34883636    -0.88110
O439        O  0.29998701  0.21691497  0.37070292    -0.86590
O440        O  0.38723949  0.23066189  0.43039235    -0.86170
Zr441      Zr  0.34782828  0.19799349  0.39019899     2.84310
O442        O  0.29979328  0.13478227  0.37416806    -1.08150
O443        O  0.41210798  0.21266120  0.37439434    -1.08880
C444        C  0.41998230  0.23231498  0.43888815     1.06550
C445        C  0.28254123  0.21284266  0.34700815     1.06490
C446        C  0.42930180  0.29120767  0.37192572     1.09480
C447        C  0.28242287  0.12255774  0.43963930     1.07260
H448        H  0.34872507  0.22191213  0.33509518     0.32810
O449        O  0.35030581  0.19932261  0.34217368    -1.29100
H450        H  0.36403900  0.15003253  0.42551208     0.32490
O451        O  0.36375081  0.14978054  0.40574407    -1.30780
O452        O  0.29068984  0.08900455  0.28721512    -0.86550
O453        O  0.44845055  0.11394722  0.38857345    -0.88050
O454        O  0.37429994  0.22101486  0.28799045    -0.86630
O455        O  0.24218245  0.06522323  0.38840166    -0.86680
O456        O  0.35516859  0.07860130  0.42763417    -0.86390
O457        O  0.48655321  0.23664520  0.32976741    -0.86190
O458        O  0.42259492  0.13780393  0.28760823    -0.86560
O459        O  0.32752848  0.02666066  0.33021289    -0.86030
O460        O  0.44297642  0.20528408  0.28609316    -0.87090
O461        O  0.29422252  0.01881883  0.37070717    -0.86250
O462        O  0.30634700  0.17348364  0.28610842    -0.86650
O463        O  0.49507399  0.21185668  0.37045266    -0.86370
O464        O  0.42216261  0.12834545  0.43089724    -0.86020
O465        O  0.23320458  0.09208545  0.34883260    -0.86430
O466        O  0.33819291  0.06877106  0.28639001    -0.86720
O467        O  0.42153467  0.07891800  0.34858360    -0.88060
Zr468      Zr  0.29881373  0.13534706  0.32637151     2.83100
Zr469      Zr  0.42817004  0.16542759  0.39013575     2.83500
Zr470      Zr  0.41319352  0.21285423  0.32665571     2.84090
Zr471      Zr  0.31448660  0.08558711  0.39006240     2.83360
Zr472      Zr  0.37659505  0.09957516  0.32669015     2.84220
O473        O  0.37800620  0.10124083  0.37442932    -1.08630
O474        O  0.36274887  0.14920758  0.31152273    -1.08130
C475        C  0.30780294  0.07002996  0.27627224     1.06520
C476        C  0.43998376  0.08437745  0.37202521     1.09140
C477        C  0.33816077  0.20412086  0.27662860     1.06700
C478        C  0.22055229  0.07358134  0.37211375     1.07060
C479        C  0.39082769  0.09638939  0.43959114     1.06640
C480        C  0.50819356  0.22952302  0.34698304     1.06190
C481        C  0.44158224  0.17363150  0.27634688     1.06620
C482        C  0.29893343  0.00532405  0.34742557     1.06130
H483        H  0.45061777  0.16369031  0.33494409     0.32810
O484        O  0.42646918  0.16222086  0.34216017    -1.29730
H485        H  0.28957452  0.06196302  0.33483901     0.32830
O486        O  0.31229853  0.08627235  0.34203818    -1.31120
O487        O  0.23231144  0.43473126  0.72201331    -0.86560
O488        O  0.25586386  0.30270128  0.62193020    -0.86720
O489        O  0.31877553  0.40122459  0.66367747    -0.88390
O490        O  0.20605004  0.38438805  0.62147990    -0.87150
O491        O  0.13789370  0.33743276  0.61983051    -0.86740
O492        O  0.32711499  0.37545403  0.70401226    -0.88110
O493        O  0.27658049  0.37023073  0.62040085    -0.86590
O494        O  0.26829712  0.44265056  0.68279875    -0.86170
Zr495      Zr  0.24548034  0.37725839  0.66042837     2.84310
O496        O  0.19479059  0.31383342  0.64522561    -1.08150
O497        O  0.24461493  0.37676213  0.70816245    -1.08880
C498        C  0.26229468  0.45580738  0.70579950     1.06550
C499        C  0.27554906  0.33866040  0.61085288     1.06490
C500        C  0.34044046  0.39399324  0.68078609     1.09480
C501        C  0.16983819  0.36756366  0.61013913     1.07260
H502        H  0.28256645  0.32792309  0.66892746     0.32810
O503        O  0.25839660  0.32645564  0.67609580    -1.29100
H504        H  0.18124747  0.38717360  0.66868209     0.32490
O505        O  0.18282884  0.36461276  0.67583415    -1.30780
O506        O  0.15831130  0.19157326  0.66351176    -0.86550
O507        O  0.13203443  0.32380872  0.76086922    -0.88050
O508        O  0.28139483  0.27824323  0.72154932    -0.86630
O509        O  0.12203287  0.25319623  0.62172310    -0.86680
O510        O  0.10740893  0.34981664  0.66375060    -0.86390
O511        O  0.26964640  0.37808716  0.76121445    -0.86190
O512        O  0.18567752  0.24108090  0.76130062    -0.86560
O513        O  0.07410277  0.23018613  0.72235534    -0.86030
O514        O  0.25285058  0.29031098  0.76443680    -0.87090
O515        O  0.06554477  0.25728369  0.68275733    -0.86250
O516        O  0.25271599  0.24226792  0.68213209    -0.86650
O517        O  0.22001486  0.39521348  0.76407905    -0.86370
O518        O  0.13382936  0.38340275  0.70427743    -0.86020
O519        O  0.16974188  0.23328249  0.62026305    -0.86430
O520        O  0.12463036  0.18381198  0.70385101    -0.86720
O521        O  0.11468851  0.25737947  0.76434654    -0.88060
Zr522      Zr  0.20849209  0.26409357  0.66045662     2.83100
Zr523      Zr  0.18065564  0.36306927  0.72383835     2.83500
Zr524      Zr  0.26018440  0.32913730  0.72408528     2.84090
Zr525      Zr  0.13108443  0.30058935  0.66037864     2.83360
Zr526      Zr  0.14628449  0.25039183  0.72400190     2.84220
O527        O  0.13212636  0.29996910  0.70811902    -1.08630
O528        O  0.20966718  0.26515770  0.70828785    -1.08130
C529        C  0.12932383  0.17045307  0.68050690     1.06520
C530        C  0.11357187  0.28852944  0.77269816     1.09140
C531        C  0.27272088  0.24856428  0.70499883     1.06700
C532        C  0.13881089  0.23399712  0.61062579     1.07060
C533        C  0.11492785  0.37843238  0.68105659     1.06640
C534        C  0.25248346  0.39648974  0.77276875     1.06190
C535        C  0.22142344  0.25826730  0.77306661     1.06620
C536        C  0.05277689  0.23889426  0.70604995     1.06130
H537        H  0.19608717  0.31451540  0.75942667     0.32810
O538        O  0.19595134  0.31438290  0.73965457    -1.29790
H539        H  0.12149171  0.22765786  0.66877797     0.32830
O540        O  0.14452468  0.25163677  0.67602206    -1.31120
O541        O  0.20477230  0.25302825  0.12377863    -0.86560
O542        O  0.07362237  0.28018858  0.22174247    -0.86720
O543        O  0.11286356  0.19577649  0.16257740    -0.88390
O544        O  0.12348492  0.30701624  0.12382046    -0.87150
O545        O  0.17334173  0.37360064  0.12084808    -0.86740
O546        O  0.13919868  0.18752996  0.20279022    -0.88110
O547        O  0.06507335  0.24712525  0.18093072    -0.86590
O548        O  0.13771051  0.23555457  0.12059812    -0.86170
Zr549      Zr  0.13188095  0.26731907  0.16115813     2.84310
O550        O  0.14766707  0.33057212  0.17697687    -1.08150
O551        O  0.18209657  0.25362538  0.17702542    -1.08880
C552        C  0.16902088  0.23477273  0.11195006     1.06550
C553        C  0.05198998  0.25149436  0.20448383     1.06490
C554        C  0.12154650  0.17477922  0.17909418     1.09480
C555        C  0.14099749  0.34240002  0.11208406     1.07260
H556        H  0.10948461  0.24322099  0.21636207     0.32810
O557        O  0.13358008  0.26594140  0.20915270    -1.29100
H558        H  0.19607309  0.31619325  0.12581974     0.32490
O559        O  0.19622546  0.31621273  0.14558903    -1.30780
O560        O  0.18649009  0.37577455  0.26386731    -0.86550
O561        O  0.31789490  0.35254433  0.16322239    -0.88050
O562        O  0.13738866  0.24613904  0.26361553    -0.86630
O563        O  0.16059005  0.40084537  0.16333126    -0.86680
O564        O  0.26008458  0.38873733  0.12411201    -0.86390
O565        O  0.23186962  0.22877983  0.22121441    -0.86190
O566        O  0.27077252  0.32835051  0.26289211    -0.86560
O567        O  0.28480690  0.43966839  0.22140888    -0.86030
O568        O  0.22286262  0.26091600  0.26462827    -0.87090
O569        O  0.25899824  0.44714703  0.18072048    -0.86250
O570        O  0.11678839  0.29308261  0.26520156    -0.86650
O571        O  0.26488450  0.25396220  0.18059023    -0.86370
O572        O  0.27704574  0.33930048  0.12081198    -0.86020
O573        O  0.12573543  0.37427270  0.20316079    -0.86430
O574        O  0.25453340  0.39645803  0.26550656    -0.86720
O575        O  0.32671826  0.38827021  0.20282673    -0.88060
Zr576      Zr  0.14698880  0.32992416  0.22473406     2.83100
Zr577      Zr  0.24544292  0.30115073  0.16115747     2.83500
Zr578      Zr  0.18343898  0.25325911  0.22473675     2.84090
Zr579      Zr  0.21194240  0.38027192  0.16133546     2.83360
Zr580      Zr  0.26123995  0.36675288  0.22471354     2.84220
O581        O  0.26022941  0.36516257  0.17697568    -1.08630
O582        O  0.19748886  0.31679048  0.23989732    -1.08130
C583        C  0.22264137  0.39473228  0.27526731     1.06520
C584        C  0.33943564  0.38241025  0.17962277     1.09140
C585        C  0.11832163  0.26291500  0.27489807     1.06700
C586        C  0.13106398  0.39255483  0.17985262     1.07060
C587        C  0.27812827  0.37145372  0.11228751     1.06640
C588        C  0.26022902  0.23577908  0.20389065     1.06190
C589        C  0.25419123  0.29245652  0.27399324     1.06620
C590        C  0.27757010  0.46088839  0.20402192     1.06130
H591        H  0.27032181  0.30233821  0.21609850     0.32810
O592        O  0.24758963  0.30410169  0.20910887    -1.29730
H593        H  0.21143465  0.40358687  0.21653702     0.32830
O594        O  0.20976940  0.37943917  0.20931664    -1.31120
O595        O  0.01831506  0.04186218  0.59665260    -0.86560
O596        O  0.15008811  0.01829182  0.49613534    -0.86720
O597        O  0.10292964  0.99366579  0.59681071    -0.88390
O598        O  0.11769932  0.10494813  0.55503293    -0.87150
O599        O  0.09305552  0.11283275  0.51394380    -0.86740
O600        O  0.05470009  0.42629769  0.59841460    -0.88110
O601        O  0.15924584  0.05361114  0.53597961    -0.86590
O602        O  0.08612414  0.06168809  0.59890933    -0.86170
Zr603      Zr  0.09379526  0.03207593  0.55827787     2.84310
O604        O  0.09291204  0.03036601  0.51051313    -1.08150
O605        O  0.02968021  0.48252176  0.57320987    -1.08880
C606        C  0.05421029  0.06038676  0.60829443     1.06550
C607        C  0.17172201  0.04817076  0.51250111     1.06490
C608        C  0.08603033  0.45773023  0.60793510     1.09480
C609        C  0.11074925  0.12624377  0.53755709     1.07260
H610        H  0.10251299  0.46767966  0.54986460     0.32810
O611        O  0.07979523  0.46934529  0.54274712    -1.29100
H612        H  0.04437497  0.06930751  0.54961725     0.32490
O613        O  0.04260118  0.04505790  0.54250985    -1.30780
O614        O  0.03694046  0.41914331  0.45689621    -0.86550
O615        O  0.40593612  0.44680103  0.55502611    -0.88050
O616        O  0.06421022  0.39451032  0.55513653    -0.86630
O617        O  0.09215521  0.05255276  0.45666133    -0.86680
O618        O  0.49397420  0.06687330  0.49606849    -0.86390
O619        O  0.47005962  0.41271894  0.59748078    -0.86190
O620        O  0.44460943  0.36184923  0.49622124    -0.86560
O621        O  0.45588114  0.47341984  0.45724058    -0.86030
O622        O  0.47021279  0.35320179  0.53666381    -0.87090
O623        O  0.50625412  0.03983617  0.45429982    -0.86250
O624        O  0.09730780  0.41926891  0.51448075    -0.86650
O625        O  0.44921726  0.45950706  0.59850868    -0.86370
O626        O  0.45855266  0.04024084  0.53570684    -0.86020
O627        O  0.10933847  0.00314875  0.45414940    -0.86430
O628        O  0.96995465  0.40221063  0.45386383    -0.86720
O629        O  0.39726665  0.41358385  0.51430436    -0.88060
Zr630      Zr  0.07771925  0.46621514  0.49477584     2.83100
Zr631      Zr  0.47942698  0.49591939  0.55779570     2.83500
Zr632      Zr  0.01546144  0.41884830  0.55836448     2.84090
Zr633      Zr  0.04525612  0.04608096  0.49450788     2.83360
Zr634      Zr  0.46414387  0.43339998  0.49460873     2.84220
O635        O  0.48067887  0.49686322  0.51012004    -1.08630
O636        O  0.01406754  0.41912554  0.51058182    -1.08130
C637        C  0.00125270  0.40167195  0.44496374     1.06520
C638        C  0.38417585  0.41809369  0.53782873     1.09140
C639        C  0.09274945  0.40149502  0.53794044     1.06700
C640        C  0.10983147  0.03470643  0.44500739     1.07060
C641        C  0.46409620  0.05837719  0.51231752     1.06640
C642        C  0.45109181  0.42971749  0.60860566     1.06190
C643        C  0.45287828  0.34068542  0.51285174     1.06620
C644        C  0.47360987  0.00890463  0.44558109     1.06130
H645        H  0.44146762  0.40925612  0.54982955     0.32810
O646        O  0.46571680  0.43177837  0.54259665    -1.29730
H647        H  0.02852463  0.98166129  0.45936982     0.32830
O648        O  0.02880026  0.48171947  0.47913566    -1.31120
C649        C  0.13050161  0.18657574  0.86572477    -0.12330
C650        C  0.15077178  0.17182023  0.85007491     0.04670
C651        C  0.13078837  0.13115996  0.84116838    -0.07620
C652        C  0.09047728  0.10598557  0.84875595    -0.08370
C653        C  0.07033256  0.12065308  0.86462698    -0.02920
C654        C  0.09013133  0.16145761  0.87320072     0.03900
N655        N  0.07024815  0.17764247  0.88966961     0.66410
H656        H  0.14602776  0.21823325  0.87136539     0.15300
H657        H  0.07501914  0.07430963  0.84316664     0.15020
N658        N  0.15041477  0.11513500  0.82429720     0.74110
O659        O  0.09107596  0.20928851  0.90367351    -0.39340
O660        O  0.03228775  0.16291951  0.88839254    -0.39280
O661        O  0.18827125  0.12924080  0.82569373    -0.39990
O662        O  0.12940625  0.08441024  0.80950338    -0.40050
C663        C  0.06379721  0.25658307  0.01244045    -0.12330
C664        C  0.05319975  0.27049379  0.03554298     0.04670
C665        C  0.01815782  0.24450134  0.05075773    -0.07620
C666        C  0.99436140  0.20452862  0.04228224    -0.08370
C667        C  0.00471927  0.19073063  0.01900317    -0.02920
C668        C  0.04006751  0.21658375  0.00400675     0.03900
N669        N  0.05201404  0.20269992  0.98032147     0.66410
H670        H  0.09156340  0.27658750  0.00167774     0.15300
H671        H  0.46655074  0.18458618  0.05302255     0.15020
N672        N  0.00637875  0.25828767  0.07457003     0.74110
O673        O  0.07258118  0.22714131  0.96165970    -0.39340
O674        O  0.04517959  0.16693109  0.97901058    -0.39280
O675        O  0.01234119  0.29375496  0.07572623    -0.39990
O676        O  0.98682282  0.23397949  0.09355459    -0.40050
C677        C  0.42888281  0.27402620  0.18508682    -0.12330
C678        C  0.40611001  0.28800754  0.19857091     0.04670
C679        C  0.42273366  0.32954623  0.20455498    -0.07620
C680        C  0.46231167  0.35617799  0.19618062    -0.08370
C681        C  0.48516246  0.34214298  0.18286933    -0.02920
C682        C  0.46844309  0.30067572  0.17673403     0.03900
N683        N  0.99042781  0.28511456  0.16193320     0.66410
H684        H  0.41550613  0.24198501  0.18114599     0.15300
H685        H  0.47577642  0.38821555  0.20016628     0.15020
N686        N  0.40079106  0.34522986  0.21932109     0.74110
O687        O  0.48012314  0.24837509  0.16400907    -0.39340
O688        O  0.01693777  0.30634391  0.14449519    -0.39280
O689        O  0.37325720  0.32371120  0.23608363    -0.39990
O690        O  0.41184025  0.38220695  0.21776008    -0.40050
C691        C  0.30880836  0.50823331  0.54131864    -0.12330
C692        C  0.31711308  0.00646461  0.51375745     0.04670
C693        C  0.28657939  0.97814858  0.49587963    -0.07620
C694        C  0.24798914  0.45255076  0.50618454    -0.08370
C695        C  0.23978744  0.45414554  0.53381498    -0.02920
C696        C  0.27025514  0.48277452  0.55159210     0.03900
N697        N  0.26239822  0.48689585  0.57985121     0.66410
H698        H  0.33207471  0.53067012  0.55465580     0.15300
H699        H  0.22473094  0.43005691  0.49287601     0.15020
N700        N  0.29448044  0.97426504  0.46758653     0.74110
O701        O  0.28920497  0.49449504  0.59791211    -0.39340
O702        O  0.23035897  0.48674834  0.58649638    -0.39280
O703        O  0.32677626  0.97499940  0.46084721    -0.39990
O704        O  0.26747968  0.96621163  0.44958891    -0.40050
C705        C  0.23893949  0.07998965  0.68871143    -0.12330
C706        C  0.22484155  0.10500125  0.69843169     0.04670
C707        C  0.18292609  0.08918799  0.70327489    -0.07620
C708        C  0.15620299  0.04846563  0.69786118    -0.08370
C709        C  0.17018351  0.02357389  0.68781707    -0.02920
C710        C  0.21213627  0.03922537  0.68306430     0.03900
N711        N  0.22796809  0.01507907  0.67180060     0.66410
H712        H  0.27132403  0.09226526  0.68633611     0.15300
H713        H  0.12383985  0.03628349  0.70033437     0.15020
N714        N  0.16702390  0.11328630  0.71437079     0.74110
O715        O  0.26250984  0.03185813  0.66076964    -0.39340
O716        O  0.20922616  0.47727511  0.67441544    -0.39280
O717        O  0.18313344  0.15024254  0.70882618    -0.39990
O718        O  0.13411500  0.09675615  0.72745753    -0.40050
C719        C  0.40430395  0.42076866  0.35035707    -0.12330
C720        C  0.38904063  0.43953857  0.36705180     0.04670
C721        C  0.34888232  0.41804908  0.37702771    -0.07620
C722        C  0.32476417  0.37758776  0.36977334    -0.08370
C723        C  0.33991012  0.35889281  0.35293004    -0.02920
C724        C  0.38010947  0.38030795  0.34303912     0.03900
N725        N  0.39643256  0.36178959  0.32540660     0.66410
H726        H  0.43568996  0.43746057  0.34386965     0.15300
H727        H  0.29335116  0.36093258  0.37621236     0.15020
N728        N  0.33238646  0.43648399  0.39458742     0.74110
O729        O  0.42575471  0.38327118  0.30978279    -0.39340
O730        O  0.38408778  0.32453344  0.32692855    -0.39280
O731        O  0.34407179  0.47356146  0.39271872    -0.39990
O732        O  0.30322120  0.41493125  0.41030126    -0.40050
C733        C  0.46859648  0.08259400  0.21524989    -0.12330
C734        C  0.45780506  0.10548603  0.19837676     0.04670
C735        C  0.43604624  0.08915228  0.17380210    -0.07620
C736        C  0.42601729  0.04999137  0.16673373    -0.08370
C737        C  0.43720340  0.02733642  0.18345691    -0.02920
C738        C  0.45835880  0.04334288  0.20821003     0.03900
N739        N  0.46956484  0.02070542  0.22626177     0.66410
H740        H  0.48494015  0.09556567  0.23424101     0.15300
H741        H  0.40955159  0.03692660  0.14779126     0.15020
N742        N  0.42259996  0.11066368  0.15643872     0.74110
O743        O  0.47426427  0.02858411  0.25158492    -0.39340
O744        O  0.47733162  0.49462044  0.21697698    -0.39280
O745        O  0.44378514  0.14838364  0.15361244    -0.39990
O746        O  0.39129311  0.09140795  0.14162303    -0.40050
C747        C  0.12017758  0.14561394  0.38732043    -0.12330
C748        C  0.11932282  0.11749467  0.36839258     0.04670
C749        C  0.10949082  0.11876532  0.34076200    -0.07620
C750        C  0.10105862  0.14863147  0.33274689    -0.08370
C751        C  0.10257965  0.17718551  0.35158191    -0.02920
C752        C  0.11191939  0.17557416  0.37928176     0.03900
N753        N  0.11442242  0.20444390  0.39919260     0.66410
H754        H  0.12870887  0.14500411  0.40846540     0.15300
H755        H  0.09260124  0.14931693  0.31159734     0.15020
N756        N  0.10725576  0.08998620  0.32085366     0.74110
O757        O  0.10459539  0.19388160  0.42374106    -0.39340
O758        O  0.13022063  0.24127004  0.39309009    -0.39280
O759        O  0.09338297  0.05351572  0.32729398    -0.39990
O760        O  0.11568338  0.10015985  0.29610759    -0.40050
C761        C  0.29866040  0.02434271  0.04086430    -0.12330
C762        C  0.26938122  0.01242188  0.02020251     0.04670
C763        C  0.25245893  0.47390717  0.00797771    -0.07620
C764        C  0.26584442  0.44800737  0.01651466    -0.08370
C765        C  0.29582925  0.46020805  0.03669517    -0.02920
C766        C  0.31230983  0.49848740  0.04942975     0.03900
N767        N  0.34221724  0.51121666  0.07108235     0.66410
H768        H  0.31167200  0.05427954  0.04970599     0.15300
H769        H  0.25253584  0.41806506  0.00761805     0.15020
N770        N  0.22152253  0.46059898  0.98718068     0.74110
O771        O  0.34436203  0.03589755  0.08906267    -0.39340
O772        O  0.36852622  0.50042482  0.07125040    -0.39280
O773        O  0.22930184  0.97824414  0.96434620    -0.39990
O774        O  0.18919445  0.42712610  0.98974926    -0.40050
C775        C  0.26258681  0.25445898  0.51289659    -0.12330
C776        C  0.29383728  0.27244944  0.53222511     0.04670
C777        C  0.31164997  0.25111792  0.54366013    -0.07620
C778        C  0.29763867  0.21170102  0.53495864    -0.08370
C779        C  0.26655873  0.19372746  0.51548050    -0.02920
C780        C  0.24831754  0.21490939  0.50417062     0.03900
N781        N  0.21510152  0.19700338  0.48462481     0.66410
H782        H  0.24869962  0.27119734  0.50513115     0.15300
H783        H  0.31152883  0.19508700  0.54296717     0.15020
N784        N  0.34304964  0.26857540  0.56436972     0.74110
O785        O  0.19154075  0.21102026  0.48204451    -0.39340
O786        O  0.21019283  0.16886971  0.46879165    -0.39280
O787        O  0.34679291  0.24625544  0.58174626    -0.39990
O788        O  0.36900238  0.30575865  0.56422259    -0.40050
C789        C  0.44031077  0.32067945  0.66707038    -0.12330
C790        C  0.43968272  0.34777158  0.68627398     0.04670
C791        C  0.44629444  0.34416434  0.71424138    -0.07620
C792        C  0.45376134  0.31361136  0.72219091    -0.08370
C793        C  0.45466342  0.28674453  0.70292732    -0.02920
C794        C  0.44787119  0.29024495  0.67499934     0.03900
N795        N  0.44764130  0.26298956  0.65463364     0.66410
H796        H  0.43373697  0.32257116  0.64566707     0.15300
H797        H  0.46020884  0.31153454  0.74359306     0.15020
N798        N  0.44653898  0.37144035  0.73459535     0.74110
O799        O  0.43150419  0.22576688  0.65957052    -0.39340
O800        O  0.96029837  0.27549591  0.63077553    -0.39280
O801        O  0.43423297  0.35904427  0.75852818    -0.39990
O802        O  0.46238577  0.40860951  0.72956861    -0.40050
C803        C  0.09826323  0.42597211  0.83951217    -0.12330
C804        C  0.12009364  0.43897737  0.86405193     0.04670
C805        C  0.12821407  0.41276900  0.87975384    -0.07620
C806        C  0.11303793  0.37333520  0.87072866    -0.08370
C807        C  0.09123755  0.36027838  0.84621926    -0.02920
C808        C  0.08335075  0.38649387  0.83032735     0.03900
N809        N  0.06006887  0.37339813  0.80523153     0.66410
H810        H  0.09147043  0.44616398  0.82814453     0.15300
H811        H  0.11984849  0.35320844  0.88217846     0.15020
N812        N  0.15194476  0.42586100  0.90465223     0.74110
O813        O  0.06604301  0.39852148  0.78655566    -0.39340
O814        O  0.03113729  0.33758571  0.80253749    -0.39280
O815        O  0.14484305  0.40118124  0.92385426    -0.39990
O816        O  0.18235852  0.46096765  0.90658974    -0.40050
C817        C  0.21477427  0.10622466  0.17508045    -0.12330
C818        C  0.17425708  0.08127651  0.18293023     0.04670
C819        C  0.16196060  0.04451222  0.19665337    -0.07620
C820        C  0.19130407  0.03368422  0.20175771    -0.08370
C821        C  0.23176236  0.05859254  0.19390400    -0.02920
C822        C  0.24402924  0.09532722  0.18038797     0.03900
N823        N  0.28545163  0.12143407  0.17193255     0.66410
H824        H  0.22316361  0.13369199  0.16386036     0.15300
H825        H  0.18309463  0.00623461  0.21294310     0.15020
N826        N  0.12090137  0.01858594  0.20619578     0.74110
O827        O  0.29802399  0.15802553  0.16651850    -0.39340
O828        O  0.30869694  0.10748338  0.16762063    -0.39280
O829        O  0.09181228  0.02292693  0.19810405    -0.39990
O830        O  0.11356700  0.99120820  0.22340390    -0.40050
C831        C  0.10327403  0.39214235  0.38802532    -0.12330
C832        C  0.07530219  0.39180592  0.36887223     0.04670
C833        C  0.08593648  0.40024533  0.34116546    -0.07620
C834        C  0.12442291  0.40855588  0.33331211    -0.08370
C835        C  0.15221888  0.40833378  0.35237651    -0.02920
C836        C  0.14174595  0.40034832  0.38015566     0.03900
N837        N  0.16889167  0.39928435  0.40034854     0.66410
H838        H  0.09452347  0.38462306  0.40923973     0.15300
H839        H  0.13315055  0.41608086  0.31209629     0.15020
N840        N  0.05874106  0.40128083  0.32099570     0.74110
O841        O  0.16833052  0.41004008  0.42471128    -0.39340
O842        O  0.19061912  0.38403784  0.39468709    -0.39280
O843        O  0.03637820  0.41573715  0.32685859    -0.39990
O844        O  0.05969701  0.39113868  0.29652738    -0.40050
C845        C  0.25243776  0.23472478  0.01148017    -0.12330
C846        C  0.24117671  0.21695567  0.03721768     0.04670
C847        C  0.26905643  0.21241826  0.05400567    -0.07620
C848        C  0.30831378  0.22660913  0.04450224    -0.08370
C849        C  0.31948920  0.24417424  0.01867959    -0.02920
C850        C  0.29167381  0.24901368  0.00202682     0.03900
N851        N  0.30291975  0.26858147  0.97576317     0.66410
H852        H  0.23101904  0.23892213  0.99923387     0.15300
H853        H  0.32971203  0.22232478  0.05670119     0.15020
N854        N  0.25778908  0.19297610  0.08031630     0.74110
O855        O  0.27692431  0.25767888  0.95669263    -0.39340
O856        O  0.33762789  0.29910003  0.97227402    -0.39280
O857        O  0.22292385  0.16274793  0.08393258    -0.39990
O858        O  0.28390984  0.20358987  0.09928394    -0.40050
C859        C  0.49409646  0.21750522  0.53304265    -0.12330
C860        C  0.00909247  0.25055980  0.51550329     0.04670
C861        C  0.04870490  0.26790658  0.50469488    -0.07620
C862        C  0.07267438  0.25138079  0.51214161    -0.08370
C863        C  0.05772426  0.21846745  0.52983539    -0.02920
C864        C  0.01794093  0.20087412  0.54034703     0.03900
N865        N  0.00173647  0.16684801  0.55866158     0.66410
H866        H  0.46306259  0.20370964  0.54017133     0.15300
H867        H  0.10377976  0.26527360  0.50515707     0.15020
N868        N  0.06480349  0.30179440  0.48624551     0.74110
O869        O  0.47401785  0.16098705  0.57525083    -0.39340
O870        O  0.01227355  0.14057083  0.55672542    -0.39280
O871        O  0.05334277  0.32742923  0.48749660    -0.39990
O872        O  0.09311769  0.30808199  0.47008040    -0.40050
C873        C  0.32439417  0.37913900  0.86574232    -0.12330
C874        C  0.34004688  0.41431849  0.85020149     0.04670
C875        C  0.38068693  0.43401192  0.84103435    -0.07620
C876        C  0.40490020  0.41765286  0.84817816    -0.08370
C877        C  0.38930832  0.38263748  0.86387999    -0.02920
C878        C  0.34855038  0.36270050  0.87276821     0.03900
N879        N  0.33156908  0.32657708  0.88918479     0.66410
H880        H  0.29267333  0.36368623  0.87150986     0.15300
H881        H  0.43665346  0.43314881  0.84249418     0.15020
N882        N  0.39759746  0.46988639  0.82435684     0.74110
O883        O  0.30065073  0.31675072  0.90366884    -0.39340
O884        O  0.34493733  0.30249744  0.88754756    -0.39280
O885        O  0.38379078  0.49364498  0.82536524    -0.39990
O886        O  0.42865342  0.47966255  0.81003305    -0.40050
C887        C  0.43407046  0.05977255  0.72011884    -0.12330
C888        C  0.40634779  0.05986117  0.70096219     0.04670
C889        C  0.41684494  0.06789851  0.67320719    -0.07620
C890        C  0.45507563  0.07542266  0.66532233    -0.08370
C891        C  0.48258632  0.07475941  0.68443270    -0.02920
C892        C  0.47215628  0.06706000  0.71221818     0.03900
N893        N  0.49891604  0.06521286  0.73237153     0.66410
H894        H  0.42530484  0.05236662  0.74134293     0.15300
H895        H  0.46385189  0.08267892  0.64409072     0.15020
N896        N  0.38973059  0.06915464  0.65304740     0.74110
O897        O  0.49871788  0.07612238  0.75674604    -0.39340
O898        O  0.01976673  0.04901440  0.72667964    -0.39280
O899        O  0.36678155  0.08284897  0.65912449    -0.39990
O900        O  0.39111191  0.05975215  0.62845269    -0.40050
C901        C  0.29493806  0.99656614  0.71518241     0.03060
C902        C  0.33163330  0.51468126  0.70062434    -0.13090
C903        C  0.36600349  0.54861787  0.71096979     0.00560
C904        C  0.36384317  0.56672073  0.73484741    -0.11610
C905        C  0.32939451  0.54850093  0.75092750     0.03050
C906        C  0.29403347  0.51371558  0.74086738    -0.11030
H907        H  0.33491248  0.00049431  0.68239561     0.08650
H908        H  0.39090247  0.59367246  0.74206878     0.06180
H909        H  0.26712968  0.49915331  0.75342738     0.06030
C910        C  0.09501922  0.63057359  0.67116394     0.03060
C911        C  0.05795940  0.61546422  0.68508962    -0.13090
C912        C  0.02222026  0.58360986  0.67429896     0.00560
C913        C  0.02304530  0.56445885  0.65055635    -0.11610
C914        C  0.05813702  0.57962878  0.63520372     0.03050
C915        C  0.09482949  0.61251805  0.64567370    -0.11030
H916        H  0.05576061  0.63066149  0.70313900     0.08650
H917        H  0.99493857  0.53895709  0.64308213     0.06180
H918        H  0.12218625  0.62507164  0.63354801     0.06030
C919        C  0.28074618  0.96653880  0.83620481     0.03060
C920        C  0.30298299  0.95200518  0.85046947    -0.13090
C921        C  0.31099088  0.92397841  0.83840010     0.00560
C922        C  0.29428670  0.90682308  0.81337317    -0.11610
C923        C  0.27021138  0.91824498  0.79894615     0.03050
C924        C  0.26357764  0.94881457  0.81022521    -0.11030
H925        H  0.31779306  0.96515709  0.86984050     0.08650
H926        H  0.30068151  0.88433437  0.80513259     0.06180
H927        H  0.24667429  0.95957906  0.79858096     0.06030
C928        C  0.44825091  0.83091569  0.88037802     0.03060
C929        C  0.42749427  0.84609152  0.86501493    -0.13090
C930        C  0.41835907  0.87369102  0.87653524     0.00560
C931        C  0.43306229  0.89032875  0.90204986    -0.11610
C932        C  0.45604243  0.87866933  0.91746961     0.03050
C933        C  0.46333833  0.84812996  0.90682306    -0.11030
H934        H  0.41419240  0.83340495  0.84521285     0.08650
H935        H  0.42589869  0.91247542  0.90991018     0.06180
H936        H  0.47901757  0.83687358  0.91934554     0.06030
C937        C  0.44880145  0.80199274  0.50255692     0.03060
C938        C  0.47186182  0.78798734  0.51631938    -0.13090
C939        C  0.47993517  0.76023643  0.50393074     0.00560
C940        C  0.46273355  0.74299702  0.47902478    -0.11610
C941        C  0.43799110  0.75403751  0.46503406     0.03050
C942        C  0.43113328  0.78423228  0.47668012    -0.11030
H943        H  0.98704832  0.80122940  0.53557812     0.08650
H944        H  0.46919681  0.72066999  0.47057175     0.06180
H945        H  0.41370856  0.79472553  0.46537438     0.06030
C946        C  0.11564176  0.66585750  0.54677695     0.03060
C947        C  0.09543555  0.68143842  0.53119384    -0.13090
C948        C  0.08680852  0.70955123  0.54249874     0.00560
C949        C  0.10118233  0.72592348  0.56814017    -0.11610
C950        C  0.12304841  0.71331759  0.58390296     0.03050
C951        C  0.13016053  0.68266027  0.57334898    -0.11030
H952        H  0.08224760  0.66877661  0.51136438     0.08650
H953        H  0.09435445  0.74834352  0.57593052     0.06180
H954        H  0.14519879  0.67092304  0.58607626     0.06030
C955        C  0.43132979  0.79751907  0.00461829     0.03060
C956        C  0.43015577  0.77954556  0.97876054    -0.13090
C957        C  0.39277564  0.74726164  0.96824722     0.00560
C958        C  0.35784047  0.73352984  0.98357974    -0.11610
C959        C  0.35832415  0.75246830  0.00772484     0.03050
C960        C  0.39465750  0.78244448  0.01904061    -0.11030
H961        H  0.45733060  0.79162160  0.96648142     0.08650
H962        H  0.32900492  0.70920799  0.97600747     0.06180
H963        H  0.39312520  0.79667798  0.03781087     0.06030
C964        C  0.12878514  0.66300820  0.04924619     0.03060
C965        C  0.16618322  0.67767630  0.03588000    -0.13090
C966        C  0.20185753  0.70781152  0.04768611     0.00560
C967        C  0.20108609  0.72700146  0.07133838    -0.11610
C968        C  0.16523421  0.71380073  0.08562761     0.03050
C969        C  0.12841894  0.68145218  0.07457813    -0.11030
H970        H  0.16867631  0.66328681  0.01748146     0.08650
H971        H  0.22958355  0.75149062  0.07920987     0.06180
H972        H  0.10051310  0.66982026  0.08600366     0.06030
C973        C  0.46273014  0.83138970  0.38177505     0.03060
C974        C  0.46178344  0.84886898  0.40733704    -0.13090
C975        C  0.49768217  0.88260577  0.41797342     0.00560
C976        C  0.03289873  0.89929632  0.40262573    -0.11610
C977        C  0.03495992  0.88091674  0.37886878     0.03050
C978        C  0.50007367  0.84805984  0.36798555    -0.11030
H979        H  0.43429800  0.83533730  0.41934989     0.08650
H980        H  0.06033162  0.92558001  0.41014152     0.06180
H981        H  0.00322685  0.83357450  0.34987609     0.06030
C982        C  0.26462926  0.96509183  0.33826775     0.03060
C983        C  0.22778146  0.94956302  0.35259533    -0.13090
C984        C  0.19191911  0.91747733  0.34203595     0.00560
C985        C  0.19247181  0.89842467  0.31814366    -0.11610
C986        C  0.22711328  0.91399282  0.30232922     0.03050
C987        C  0.26393842  0.94714632  0.31256817    -0.11030
H988        H  0.22577489  0.96461865  0.37078435     0.08650
H989        H  0.16436487  0.87272460  0.31086399     0.06180
H990        H  0.29098732  0.95998596  0.30011693     0.06030
C991        C  0.11702513  0.63573498  0.16899180     0.03060
C992        C  0.13964166  0.62132391  0.18292612    -0.13090
C993        C  0.14498140  0.59110767  0.17161217     0.00560
C994        C  0.12701019  0.57333663  0.14694546    -0.11610
C995        C  0.10385605  0.58578462  0.13234941     0.03050
C996        C  0.09862790  0.61736041  0.14338541    -0.11030
H997        H  0.15586747  0.63537550  0.20174217     0.08650
H998        H  0.13199405  0.54977377  0.13897068     0.06180
H999        H  0.08194927  0.62842421  0.13178273     0.06030
C1000       C  0.28404464  0.00132957  0.21277637     0.03060
C1001       C  0.26615301  0.51855486  0.19642092    -0.13090
C1002       C  0.26106097  0.54971438  0.20641715     0.00560
C1003       C  0.27547220  0.56615490  0.23207811    -0.11610
C1004       C  0.29343650  0.55053927  0.24908413     0.03050
C1005       C  0.29818634  0.51801699  0.23939359    -0.11030
H1006       H  0.25245790  0.00550379  0.17677340     0.08650
H1007       H  0.27067986  0.59021876  0.23925734     0.06180
H1008       H  0.31085476  0.50468815  0.25288043     0.06030
C1009       C  0.04202896  0.74825988  0.83525044     0.03060
C1010       C  0.06090959  0.74798339  0.81014023    -0.13090
C1011       C  0.09148663  0.78497900  0.79848053     0.00560
C1012       C  0.10186220  0.82101252  0.81173003    -0.11610
C1013       C  0.08270648  0.82142605  0.83547884     0.03050
C1014       C  0.05461021  0.78571396  0.84791829    -0.11030
H1015       H  0.05106055  0.71979899  0.79943479     0.08650
H1016       H  0.12474775  0.84969407  0.80337828     0.06180
H1017       H  0.04010001  0.78787553  0.86634332     0.06030
C1018       C  0.17595295  0.54986045  0.87971360     0.03060
C1019       C  0.15923605  0.51373145  0.86443033    -0.13090
C1020       C  0.12896283  0.97765251  0.87541851     0.00560
C1021       C  0.11148829  0.97703378  0.90022445    -0.11610
C1022       C  0.12677080  0.51148239  0.91625110     0.03050
C1023       C  0.15919046  0.54850072  0.90599052    -0.11030
H1024       H  0.17252430  0.51229038  0.84521871     0.08650
H1025       H  0.08719568  0.94842683  0.90773139     0.06180
H1026       H  0.17241170  0.57522545  0.91880554     0.06030
C1027       C  0.38094796  0.90070088  0.67158243     0.03060
C1028       C  0.39735147  0.88041918  0.68614208    -0.13090
C1029       C  0.43011847  0.87789285  0.67591773     0.00560
C1030       C  0.44895832  0.89776482  0.65207798    -0.11610
C1031       C  0.43223202  0.91530705  0.63579939     0.03050
C1032       C  0.39845950  0.91783858  0.64576502    -0.11030
H1033       H  0.38245071  0.86316064  0.70426800     0.08650
H1034       H  0.47522970  0.89641516  0.64507512     0.06180
H1035       H  0.38485602  0.93106371  0.63304463     0.06030
C1036       C  0.01291520  0.73283194  0.71593272     0.03060
C1037       C  0.99479248  0.71381362  0.74119815    -0.13090
C1038       C  0.46125269  0.71625856  0.75163696     0.00560
C1039       C  0.44551061  0.73579332  0.73637332    -0.11610
C1040       C  0.46468292  0.75685512  0.71299743     0.03050
C1041       C  0.99734799  0.75461520  0.70239724    -0.11030
H1042       H  0.00762716  0.69906046  0.75310008     0.08650
H1043       H  0.41934219  0.73710868  0.74364847     0.06180
H1044       H  0.01256118  0.77282822  0.68466611     0.06030
C1045       C  0.21132778  0.58230302  0.50246442     0.03060
C1046       C  0.22944735  0.58207585  0.47696079    -0.13090
C1047       C  0.26203201  0.61868502  0.46621034     0.00560
C1048       C  0.27609998  0.65411681  0.48112701    -0.11610
C1049       C  0.25720242  0.65469691  0.50494086     0.03050
C1050       C  0.22644271  0.61940980  0.51622667    -0.11030
H1051       H  0.21738220  0.55443751  0.46519201     0.08650
H1052       H  0.30058540  0.68246823  0.47344098     0.06180
H1053       H  0.21222196  0.62197406  0.53467085     0.06030
C1054       C  0.34461054  0.88312331  0.54736773     0.03060
C1055       C  0.32730603  0.88130845  0.57358067    -0.13090
C1056       C  0.29663016  0.84351530  0.58440871     0.00560
C1057       C  0.28476863  0.80866032  0.56934219    -0.11610
C1058       C  0.30182095  0.81029349  0.54420265     0.03050
C1059       C  0.32969182  0.84686149  0.53255239    -0.11030
H1060       H  0.33861174  0.90847046  0.58580331     0.08650
H1061       H  0.26250469  0.77940575  0.57731707     0.06180
H1062       H  0.34273748  0.84595923  0.51309824     0.06030
C1063       C  0.21417235  0.56818076  0.00512990     0.03060
C1064       C  0.22992324  0.54751760  0.01994904    -0.13090
C1065       C  0.26041398  0.54206966  0.00901966     0.00560
C1066       C  0.27859037  0.55967818  0.98459213    -0.11610
C1067       C  0.26372768  0.57940947  0.96874128     0.03050
C1068       C  0.23142240  0.58421227  0.97906201    -0.11030
H1069       H  0.21615431  0.53213433  0.03888953     0.08650
H1070       H  0.30288271  0.55530856  0.97711662     0.06180
H1071       H  0.21870918  0.59842585  0.96646298     0.06030
C1072       C  0.34769744  0.90053764  0.04888178     0.03060
C1073       C  0.33299709  0.92297663  0.03524002    -0.13090
C1074       C  0.30444255  0.93012480  0.04746945     0.00560
C1075       C  0.28694820  0.91247639  0.07201200    -0.11610
C1076       C  0.29910786  0.88880711  0.08605190     0.03050
C1077       C  0.33006156  0.88282106  0.07457923    -0.11030
H1078       H  0.34645122  0.93859617  0.01630245     0.08650
H1079       H  0.26410026  0.91834707  0.08038685     0.06180
H1080       H  0.34131244  0.86617104  0.08594015     0.06030
C1081       C  0.18029837  0.56666249  0.38198298     0.03060
C1082       C  0.16328568  0.58676508  0.36792459    -0.13090
C1083       C  0.13032404  0.58843204  0.37859619     0.00560
C1084       C  0.11211004  0.56823295  0.40241301    -0.11610
C1085       C  0.12904291  0.55021895  0.41805373     0.03050
C1086       C  0.16297567  0.54842806  0.40763686    -0.11030
H1087       H  0.17756697  0.60421453  0.34973122     0.08650
H1088       H  0.08576380  0.56920055  0.40972439     0.06180
H1089       H  0.17670046  0.53480533  0.41982204     0.06030
C1090       C  0.04794082  0.73454220  0.33760859     0.03060
C1091       C  0.06260433  0.71233256  0.35172033    -0.13090
C1092       C  0.09395155  0.70780225  0.34107129     0.00560
C1093       C  0.11314247  0.72730804  0.31725599    -0.11610
C1094       C  0.09857778  0.74753849  0.30169838     0.03050
C1095       C  0.06604386  0.75193343  0.31200666    -0.11030
H1096       H  0.04744727  0.69531053  0.36987435     0.08650
H1097       H  0.13831704  0.72425370  0.30996896     0.06180
H1098       H  0.05386308  0.76696775  0.29974178     0.06030
C1099       C  0.01229544  0.71661122  0.21379480     0.03060
C1100       C  0.99765774  0.68009850  0.19930407    -0.13090
C1101       C  0.46583518  0.64417130  0.20932265     0.00560
C1102       C  0.44716750  0.64361275  0.23363819    -0.11610
C1103       C  0.46150980  0.67819981  0.24951770     0.03050
C1104       C  0.49398794  0.71538304  0.23941899    -0.11030
H1105       H  0.01294001  0.67847455  0.18112594     0.08650
H1106       H  0.42260924  0.61500852  0.24092651     0.06180
H1107       H  0.00601666  0.74239652  0.25187998     0.06030
C1108       C  0.37954500  0.91590120  0.16994842     0.03060
C1109       C  0.39620014  0.95279499  0.18426487    -0.13090
C1110       C  0.42759281  0.98791789  0.17311646     0.00560
C1111       C  0.44505907  0.98694443  0.14868283    -0.11610
C1112       C  0.42963417  0.95160233  0.13348197     0.03050
C1113       C  0.39677765  0.91541312  0.14420316    -0.11030
H1114       H  0.38257520  0.95546312  0.20297322     0.08650
H1115       H  0.46985416  0.51500807  0.14088378     0.06180
H1116       H  0.38366204  0.88796534  0.13213828     0.06030
C1117       C  0.27871707  0.74801335  0.33752257     0.03060
C1118       C  0.30100188  0.78426238  0.35233152    -0.13090
C1119       C  0.31057576  0.82089582  0.34050017     0.00560
C1120       C  0.29525611  0.82259437  0.31517654    -0.11610
C1121       C  0.27105268  0.78769570  0.30029269     0.03050
C1122       C  0.26305010  0.74986729  0.31127606    -0.11030
H1123       H  0.31481316  0.78500598  0.37195255     0.08650
H1124       H  0.30279368  0.85188432  0.30708945     0.06180
H1125       H  0.24630544  0.72264398  0.29915729     0.06030
C1126       C  0.44574147  0.55051344  0.38186069     0.03060
C1127       C  0.42517662  0.51405607  0.36710147    -0.13090
C1128       C  0.41797884  0.97817291  0.37891193     0.00560
C1129       C  0.43413452  0.97770367  0.40415508    -0.11610
C1130       C  0.45659141  0.51298959  0.41912079     0.03050
C1131       C  0.46236360  0.54998691  0.40808052    -0.11030
H1132       H  0.41072429  0.51231579  0.34756280     0.08650
H1133       H  0.42833791  0.94893853  0.41223723     0.06180
H1134       H  0.47795429  0.57739270  0.42013863     0.06030
C1135       C  0.28072598  0.71574798  0.71418925     0.03060
C1136       C  0.26351534  0.68016961  0.69832918    -0.13090
C1137       C  0.25477727  0.64368660  0.71023879     0.00560
C1138       C  0.26903596  0.64271530  0.73614865    -0.11610
C1139       C  0.28999198  0.67763422  0.75173551     0.03050
C1140       C  0.29545184  0.71459323  0.74094374    -0.11030
H1141       H  0.25118364  0.67919017  0.67809946     0.08650
H1142       H  0.26263426  0.61383234  0.74437683     0.06180
H1143       H  0.30905448  0.74140166  0.75367173     0.06030
C1144       C  0.10907154  0.91271514  0.67197728     0.03060
C1145       C  0.12892722  0.94851588  0.68757932    -0.13090
C1146       C  0.13984692  0.98551358  0.67557431     0.00560
C1147       C  0.12572218  0.98746628  0.64980634    -0.11610
C1148       C  0.10226452  0.95275799  0.63453181     0.03050
C1149       C  0.09454046  0.91490424  0.64535454    -0.11030
H1150       H  0.14124338  0.94887754  0.70770912     0.08650
H1151       H  0.13382040  0.51683020  0.64157733     0.06180
H1152       H  0.07912222  0.88800486  0.63277671     0.06030
C1153       C  0.42998041  0.56379598  0.50213532     0.03060
C1154       C  0.39227801  0.54065218  0.51506002    -0.13090
C1155       C  0.35689771  0.53650072  0.50354124     0.00560
C1156       C  0.35860768  0.55832435  0.48066080    -0.11610
C1157       C  0.39440998  0.57973836  0.46613302     0.03050
C1158       C  0.43084395  0.58318067  0.47700848    -0.11030
H1159       H  0.38940229  0.52271560  0.53294918     0.08650
H1160       H  0.33069041  0.55614397  0.47317565     0.06180
H1161       H  0.45879874  0.59910949  0.46559889     0.06030
C1162       C  0.12738238  0.89618380  0.54735979     0.03060
C1163       C  0.16437416  0.91844691  0.53337155    -0.13090
C1164       C  0.20047571  0.92356469  0.54442850     0.00560
C1165       C  0.20008599  0.90305739  0.56775637    -0.11610
C1166       C  0.16526054  0.88285963  0.58328460     0.03050
C1167       C  0.12818389  0.87872205  0.57297847    -0.11030
H1168       H  0.16623888  0.93534037  0.51512332     0.08650
H1169       H  0.22838012  0.90578550  0.57492766     0.06180
H1170       H  0.10097138  0.86379913  0.58523313     0.06030
C1171       C  0.29465013  0.73007846  0.21308091     0.03060
C1172       C  0.33108749  0.75106885  0.19837887    -0.13090
C1173       C  0.36752538  0.75791293  0.20977266     0.00560
C1174       C  0.36860330  0.74131706  0.23460543    -0.11610
C1175       C  0.33359343  0.71976668  0.24986797     0.03050
C1176       C  0.29605277  0.71394696  0.23913263    -0.11030
H1177       H  0.33238858  0.76596061  0.17924456     0.08650
H1178       H  0.39772363  0.74707897  0.24253622     0.06180
H1179       H  0.26889195  0.69888740  0.25142787     0.06030
C1180       C  0.09712875  0.89852786  0.17006805     0.03060
C1181       C  0.06009806  0.87726462  0.18406289    -0.13090
C1182       C  0.02443460  0.87208934  0.17245415     0.00560
C1183       C  0.02477944  0.89028905  0.14804489    -0.11610
C1184       C  0.06038707  0.91167901  0.13327077     0.03050
C1185       C  0.09719086  0.91619807  0.14432405    -0.11030
H1186       H  0.05775947  0.86119200  0.20283459     0.08650
H1187       H  0.99617871  0.88575869  0.13994873     0.06180
H1188       H  0.12482384  0.93143826  0.13251633     0.06030
C1189       C  0.44367673  0.57931297  0.00469062     0.03060
C1190       C  0.42706959  0.58055955  0.97867031    -0.13090
C1191       C  0.43387942  0.61800283  0.96776033     0.00560
C1192       C  0.45713884  0.65306329  0.98270047    -0.11610
C1193       C  0.47442350  0.65223385  0.00742904     0.03050
C1194       C  0.46634069  0.61591597  0.01912699    -0.11030
H1195       H  0.41066075  0.55323384  0.96660687     0.08650
H1196       H  0.46327219  0.68200946  0.97476695     0.06180
H1197       H  0.48146510  0.61719947  0.03828298     0.06030
C1198       C  0.11095020  0.88226696  0.04860513     0.03060
C1199       C  0.12891653  0.88252348  0.07441224    -0.13090
C1200       C  0.12384586  0.84592572  0.08558322     0.00560
C1201       C  0.10135821  0.81030714  0.07097910    -0.11610
C1202       C  0.08281027  0.80970133  0.04651949     0.03050
C1203       C  0.08878993  0.84518602  0.03466505    -0.11030
H1204       H  0.14501694  0.91024899  0.08609875     0.08650
H1205       H  0.09673616  0.78193212  0.07902343     0.06180
H1206       H  0.07270400  0.84283770  0.01574831     0.06030
C1207       C  0.26270938  0.73010602  0.83683774     0.03060
C1208       C  0.26239086  0.74707288  0.81088222    -0.13090
C1209       C  0.22518833  0.74104361  0.79942789     0.00560
C1210       C  0.18936478  0.71766622  0.81367715    -0.11610
C1211       C  0.18965404  0.70118024  0.83871713     0.03050
C1212       C  0.22583402  0.70898753  0.85103041    -0.11030
H1213       H  0.29015918  0.76310442  0.79928964     0.08650
H1214       H  0.16037316  0.71144347  0.80520589     0.06180
H1215       H  0.22404999  0.69442587  0.87040271     0.06030
C1216       C  0.45910250  0.56086251  0.88007324     0.03060
C1217       C  0.49524976  0.58156680  0.86502797    -0.13090
C1218       C  0.03228497  0.59117394  0.87691545     0.00560
C1219       C  0.03423922  0.57662028  0.90240671    -0.11610
C1220       C  0.49925125  0.55339873  0.91741239     0.03050
C1221       C  0.46119335  0.54588638  0.90643108    -0.11030
H1222       H  0.49579560  0.59469109  0.84527510     0.08650
H1223       H  0.06377110  0.58411821  0.91058989     0.06180
H1224       H  0.43405412  0.53023432  0.91869391     0.06030
O1225       O  0.36901220  0.58456112  0.78981766    -0.86560
O1226       O  0.23834297  0.61240647  0.88795840    -0.86720
O1227       O  0.27710100  0.52680815  0.82953707    -0.88390
O1228       O  0.28805054  0.63789133  0.79016292    -0.87150
O1229       O  0.33813343  0.70450609  0.78772752    -0.86740
O1230       O  0.30221995  0.51802213  0.87011599    -0.88110
O1231       O  0.22954360  0.57874332  0.84738672    -0.86590
O1232       O  0.30187128  0.56724584  0.78725724    -0.86170
Zr1233     Zr  0.29627684  0.59844820  0.82797256     2.84310
O1234       O  0.31272114  0.66192677  0.84371046    -1.08150
O1235       O  0.34607176  0.58400121  0.84377796    -1.08880
C1236       C  0.33318822  0.56703601  0.77808531     1.06550
C1237       C  0.21640881  0.58381790  0.87067990     1.06490
C1238       C  0.28508186  0.50550641  0.84626765     1.09480
C1239       C  0.30590738  0.67345731  0.77862928     1.07260
H1240       H  0.27356491  0.57460131  0.88318866     0.32810
O1241       O  0.29791770  0.59703279  0.87598147    -1.29100
H1242       H  0.36050231  0.64689287  0.79276032     0.32490
O1243       O  0.36077937  0.64689617  0.81252380    -1.30780
O1244       O  0.35180946  0.70790739  0.93017240    -0.86550
O1245       O  0.48189173  0.68349710  0.82928513    -0.88050
O1246       O  0.30182133  0.57704227  0.93053056    -0.86630
O1247       O  0.32619324  0.73235140  0.83008789    -0.86680
O1248       O  0.42399677  0.71797009  0.79015805    -0.86390
O1249       O  0.39602665  0.55920265  0.88811780    -0.86190
O1250       O  0.43434059  0.65826014  0.92995272    -0.86560
O1251       O  0.45034357  0.76995684  0.88843545    -0.86030
O1252       O  0.38618489  0.59091714  0.93175926    -0.87090
O1253       O  0.42541762  0.77788069  0.84748713    -0.86250
O1254       O  0.28173383  0.62438393  0.93194757    -0.86650
O1255       O  0.42877993  0.58382543  0.84734525    -0.86370
O1256       O  0.44097848  0.66844439  0.78731119    -0.86020
O1257       O  0.29144366  0.70615830  0.87000223    -0.86430
O1258       O  0.41965946  0.72785781  0.93196033    -0.86720
O1259       O  0.49154469  0.71799020  0.86959027    -0.88060
Zr1260     Zr  0.31198676  0.66124521  0.89145447     2.83100
Zr1261     Zr  0.40962761  0.63121644  0.82792218     2.83500
Zr1262     Zr  0.34751972  0.58377006  0.89155038     2.84090
Zr1263     Zr  0.37717275  0.71119508  0.82802067     2.83360
Zr1264     Zr  0.42603305  0.69700226  0.89150478     2.84220
O1265       O  0.42483816  0.69533434  0.84376611    -1.08630
O1266       O  0.36205570  0.64749143  0.90669554    -1.08130
C1267       C  0.38801174  0.72693961  0.94150436     1.06520
C1268       C  0.50355351  0.71321963  0.84575263     1.09140
C1269       C  0.28306319  0.59415686  0.94175703     1.06700
C1270       C  0.29676238  0.72431561  0.84665305     1.07060
C1271       C  0.44158598  0.70016394  0.77836782     1.06640
C1272       C  0.42433183  0.56600420  0.87077266     1.06190
C1273       C  0.41741513  0.62246135  0.94121211     1.06620
C1274       C  0.44332306  0.79129629  0.87105780     1.06130
H1275       H  0.43458791  0.63241208  0.88296381     0.32810
O1276       O  0.41191176  0.63421753  0.87590990    -1.29730
H1277       H  0.37686673  0.73451550  0.88309112     0.32830
O1278       O  0.37496167  0.71021858  0.87596573    -1.31120
O1279       O  0.45586158  0.91959797  0.95488148    -0.86560
O1280       O  0.11411890  0.94584373  0.05523659    -0.86720
O1281       O  0.08873514  0.97094908  0.95444231    -0.88390
O1282       O  0.49432098  0.85906220  0.99668678    -0.87150
O1283       O  0.46120054  0.85096452  0.03730599    -0.86740
O1284       O  0.10914202  0.53845279  0.95325838    -0.88110
O1285       O  0.08787435  0.91124320  0.01500168    -0.86590
O1286       O  0.50369472  0.89989786  0.95349569    -0.86170
Zr1287     Zr  0.04296069  0.93208307  0.99338674     2.84310
O1288       O  0.04423317  0.93352595  0.04116343    -1.08150
O1289       O  0.02894265  0.98164571  0.97816726    -1.08880
C1290       C  0.47249087  0.90017321  0.94392088     1.06550
C1291       C  0.10577158  0.91637073  0.03861294     1.06490
C1292       C  0.10762923  0.00686641  0.94332212     1.09480
C1293       C  0.46585236  0.83758535  0.01392783     1.07260
H1294       H  0.11687267  0.99651677  0.00191227     0.32810
O1295       O  0.09258720  0.99475473  0.00912845    -1.29100
H1296       H  0.45602730  0.89410973  0.00189570     0.32490
O1297       O  0.47873135  0.91852284  0.00898142    -1.30780
O1298       O  0.10328291  0.54606891  0.09442108    -0.86550
O1299       O  0.44074271  0.51597187  0.99677392    -0.88050
O1300       O  0.15246472  0.56962795  0.99716251    -0.86630
O1301       O  0.52089980  0.91003522  0.09466988    -0.86680
O1302       O  0.40844138  0.89708876  0.05520463    -0.86390
O1303       O  0.04032704  0.55421000  0.95527540    -0.86190
O1304       O  0.06477812  0.60215365  0.05554576    -0.86560
O1305       O  0.46677138  0.49050062  0.09496637    -0.86030
O1306       O  0.10011033  0.61051800  0.01592920    -0.87090
O1307       O  0.44955501  0.92395133  0.09761016    -0.86250
O1308       O  0.16095290  0.54447412  0.03769951    -0.86650
O1309       O  0.47260619  0.50606160  0.95317839    -0.86370
O1310       O  0.39944544  0.92313947  0.01524261    -0.86020
O1311       O  0.08784869  0.95993084  0.09778878    -0.86430
O1312       O  0.05336633  0.56272888  0.09747470    -0.86720
O1313       O  0.46579073  0.54879370  0.03775795    -0.88060
Zr1314     Zr  0.09414419  0.99755466  0.05715062     2.83100
Zr1315     Zr  0.46498618  0.96735822  0.99327267     2.83500
Zr1316     Zr  0.07902270  0.54531276  0.99378151     2.84090
Zr1317     Zr  0.48072614  0.91752391  0.05696433     2.83360
Zr1318     Zr  0.01378799  0.53005749  0.05724330     2.84220
O1319       O  0.46598209  0.96674482  0.04109820    -1.08630
O1320       O  0.07810317  0.54489965  0.04151426    -1.08130
C1321       C  0.08597606  0.56419899  0.10610967     1.06520
C1322       C  0.44801070  0.54440656  0.01415688     1.09140
C1323       C  0.17415283  0.56256102  0.01437270     1.06700
C1324       C  0.05659061  0.92792564  0.10656589     1.07060
C1325       C  0.38694449  0.90537187  0.03874375     1.06640
C1326       C  0.00417883  0.53723963  0.94392300     1.06190
C1327       C  0.09459789  0.62337337  0.03922971     1.06620
C1328       C  0.44907326  0.95510660  0.10665715     1.06130
H1329       H  0.01432447  0.55386527  0.00220924     0.32810
O1330       O  0.01608322  0.53135996  0.00925320    -1.29730
H1331       H  0.03005400  0.98196201  0.09249235     0.32830
O1332       O  0.02974530  0.98178566  0.07272461    -1.31120
O1333       O  0.43731444  0.71425814  0.42713919    -0.86560
O1334       O  0.27530562  0.68450751  0.32956695    -0.86720
O1335       O  0.39923639  0.77000145  0.38809930    -0.88390
O1336       O  0.30047719  0.65804842  0.42797370    -0.87150
O1337       O  0.28300802  0.59144793  0.43065582    -0.86740
O1338       O  0.43528563  0.77823687  0.34883636    -0.88110
O1339       O  0.29998701  0.71691496  0.37070292    -0.86590
O1340       O  0.38723949  0.73066189  0.43039235    -0.86170
Zr1341     Zr  0.34782828  0.69799348  0.39019899     2.84310
O1342       O  0.29979328  0.63478227  0.37416806    -1.08150
O1343       O  0.41210798  0.71266120  0.37439433    -1.08880
C1344       C  0.41998230  0.73231498  0.43888815     1.06550
C1345       C  0.28254123  0.71284265  0.34700815     1.06490
C1346       C  0.42930180  0.79120766  0.37192572     1.09480
C1347       C  0.28242288  0.62255774  0.43963931     1.07260
H1348       H  0.34872507  0.72191213  0.33509518     0.32810
O1349       O  0.35030581  0.69932261  0.34217368    -1.29100
H1350       H  0.36403901  0.65003253  0.42551208     0.32490
O1351       O  0.36375081  0.64978054  0.40574406    -1.30780
O1352       O  0.29068984  0.58900455  0.28721511    -0.86550
O1353       O  0.44845055  0.61394721  0.38857344    -0.88050
O1354       O  0.37429994  0.72101486  0.28799045    -0.86630
O1355       O  0.24218246  0.56522323  0.38840165    -0.86680
O1356       O  0.35516860  0.57860129  0.42763417    -0.86390
O1357       O  0.48655321  0.73664520  0.32976741    -0.86190
O1358       O  0.42259493  0.63780392  0.28760823    -0.86560
O1359       O  0.32752848  0.52666066  0.33021289    -0.86030
O1360       O  0.44297642  0.70528408  0.28609316    -0.87090
O1361       O  0.29422253  0.51881883  0.37070717    -0.86250
O1362       O  0.30634701  0.67348365  0.28610842    -0.86650
O1363       O  0.49507399  0.71185668  0.37045266    -0.86370
O1364       O  0.42216261  0.62834545  0.43089724    -0.86020
O1365       O  0.23320458  0.59208545  0.34883260    -0.86430
O1366       O  0.33819291  0.56877107  0.28639001    -0.86720
O1367       O  0.42153467  0.57891800  0.34858360    -0.88060
Zr1368     Zr  0.29881373  0.63534706  0.32637151     2.83100
Zr1369     Zr  0.42817005  0.66542759  0.39013575     2.83500
Zr1370     Zr  0.41319352  0.71285423  0.32665571     2.84090
Zr1371     Zr  0.31448660  0.58558710  0.39006240     2.83360
Zr1372     Zr  0.37659505  0.59957516  0.32669015     2.84220
O1373       O  0.37800620  0.60124083  0.37442931    -1.08630
O1374       O  0.36274887  0.64920758  0.31152273    -1.08130
C1375       C  0.30780294  0.57002996  0.27627224     1.06520
C1376       C  0.43998376  0.58437745  0.37202521     1.09140
C1377       C  0.33816078  0.70412086  0.27662860     1.06700
C1378       C  0.22055229  0.57358134  0.37211375     1.07060
C1379       C  0.39082769  0.59638939  0.43959114     1.06640
C1380       C  0.50819356  0.72952303  0.34698304     1.06190
C1381       C  0.44158224  0.67363150  0.27634688     1.06620
C1382       C  0.29893344  0.50532405  0.34742557     1.06130
H1383       H  0.45061778  0.66369031  0.33494409     0.32810
O1384       O  0.42646918  0.66222086  0.34216017    -1.29730
H1385       H  0.28957452  0.56196302  0.33483901     0.32830
O1386       O  0.31229853  0.58627235  0.34203818    -1.31120
O1387       O  0.23231143  0.93473126  0.72201332    -0.86560
O1388       O  0.25586386  0.80270127  0.62193020    -0.86720
O1389       O  0.31877552  0.90122459  0.66367747    -0.88390
O1390       O  0.20605003  0.88438804  0.62147990    -0.87150
O1391       O  0.13789370  0.83743275  0.61983051    -0.86740
O1392       O  0.32711499  0.87545403  0.70401226    -0.88110
O1393       O  0.27658049  0.87023073  0.62040085    -0.86590
O1394       O  0.26829711  0.94265056  0.68279875    -0.86170
Zr1395     Zr  0.24548033  0.87725839  0.66042837     2.84310
O1396       O  0.19479058  0.81383342  0.64522561    -1.08150
O1397       O  0.24461492  0.87676212  0.70816245    -1.08880
C1398       C  0.26229467  0.95580737  0.70579950     1.06550
C1399       C  0.27554905  0.83866040  0.61085288     1.06490
C1400       C  0.34044045  0.89399324  0.68078609     1.09480
C1401       C  0.16983818  0.86756366  0.61013913     1.07260
H1402       H  0.28256644  0.82792309  0.66892746     0.32810
O1403       O  0.25839660  0.82645564  0.67609580    -1.29100
H1404       H  0.18124746  0.88717359  0.66868209     0.32490
O1405       O  0.18282883  0.86461276  0.67583415    -1.30780
O1406       O  0.15831130  0.69157325  0.66351176    -0.86550
O1407       O  0.13203443  0.82380870  0.76086923    -0.88050
O1408       O  0.28139483  0.77824324  0.72154932    -0.86630
O1409       O  0.12203287  0.75319623  0.62172309    -0.86680
O1410       O  0.10740892  0.84981664  0.66375060    -0.86390
O1411       O  0.26964639  0.87808716  0.76121445    -0.86190
O1412       O  0.18567752  0.74108090  0.76130061    -0.86560
O1413       O  0.07410277  0.73018613  0.72235534    -0.86030
O1414       O  0.25285058  0.79031098  0.76443680    -0.87090
O1415       O  0.06554476  0.75728368  0.68275733    -0.86250
O1416       O  0.25271599  0.74226793  0.68213209    -0.86650
O1417       O  0.22001485  0.89521347  0.76407905    -0.86370
O1418       O  0.13382935  0.88340274  0.70427743    -0.86020
O1419       O  0.16974187  0.73328249  0.62026305    -0.86430
O1420       O  0.12463036  0.68381197  0.70385101    -0.86720
O1421       O  0.11468851  0.75737945  0.76434654    -0.88060
Zr1422     Zr  0.20849208  0.76409357  0.66045662     2.83100
Zr1423     Zr  0.18065563  0.86306926  0.72383835     2.83500
Zr1424     Zr  0.26018440  0.82913730  0.72408528     2.84090
Zr1425     Zr  0.13108442  0.80058935  0.66037864     2.83360
Zr1426     Zr  0.14628449  0.75039182  0.72400190     2.84220
O1427       O  0.13212635  0.79996909  0.70811902    -1.08630
O1428       O  0.20966717  0.76515770  0.70828785    -1.08130
C1429       C  0.12932383  0.67045307  0.68050690     1.06520
C1430       C  0.11357187  0.78852942  0.77269817     1.09140
C1431       C  0.27272088  0.74856429  0.70499883     1.06700
C1432       C  0.13881088  0.73399712  0.61062579     1.07060
C1433       C  0.11492784  0.87843237  0.68105659     1.06640
C1434       C  0.25248344  0.89648973  0.77276875     1.06190
C1435       C  0.22142344  0.75826730  0.77306661     1.06620
C1436       C  0.05277688  0.73889426  0.70604995     1.06130
H1437       H  0.19608716  0.81451539  0.75942667     0.32810
O1438       O  0.19595134  0.81438289  0.73965457    -1.29790
H1439       H  0.12149171  0.72765785  0.66877797     0.32830
O1440       O  0.14452467  0.75163677  0.67602206    -1.31120
O1441       O  0.20477230  0.75302825  0.12377863    -0.86560
O1442       O  0.07362238  0.78018858  0.22174247    -0.86720
O1443       O  0.11286355  0.69577649  0.16257740    -0.88390
O1444       O  0.12348492  0.80701624  0.12382046    -0.87150
O1445       O  0.17334173  0.87360064  0.12084808    -0.86740
O1446       O  0.13919868  0.68752996  0.20279021    -0.88110
O1447       O  0.06507336  0.74712525  0.18093072    -0.86590
O1448       O  0.13771051  0.73555457  0.12059812    -0.86170
Zr1449     Zr  0.13188095  0.76731907  0.16115813     2.84310
O1450       O  0.14766707  0.83057213  0.17697688    -1.08150
O1451       O  0.18209657  0.75362538  0.17702542    -1.08880
C1452       C  0.16902088  0.73477273  0.11195007     1.06550
C1453       C  0.05198999  0.75149436  0.20448384     1.06490
C1454       C  0.12154650  0.67477923  0.17909418     1.09480
C1455       C  0.14099749  0.84240002  0.11208407     1.07260
H1456       H  0.10948461  0.74322099  0.21636207     0.32810
O1457       O  0.13358009  0.76594140  0.20915270    -1.29100
H1458       H  0.19607309  0.81619326  0.12581974     0.32490
O1459       O  0.19622546  0.81621274  0.14558903    -1.30780
O1460       O  0.18649009  0.87577455  0.26386731    -0.86550
O1461       O  0.31789490  0.85254433  0.16322239    -0.88050
O1462       O  0.13738866  0.74613904  0.26361553    -0.86630
O1463       O  0.16059005  0.90084538  0.16333126    -0.86680
O1464       O  0.26008459  0.88873733  0.12411201    -0.86390
O1465       O  0.23186962  0.72877984  0.22121442    -0.86190
O1466       O  0.27077253  0.82835051  0.26289211    -0.86560
O1467       O  0.28480690  0.93966840  0.22140888    -0.86030
O1468       O  0.22286262  0.76091600  0.26462827    -0.87090
O1469       O  0.25899824  0.94714703  0.18072048    -0.86250
O1470       O  0.11678839  0.79308262  0.26520157    -0.86650
O1471       O  0.26488450  0.75396220  0.18059023    -0.86370
O1472       O  0.27704574  0.83930048  0.12081198    -0.86020
O1473       O  0.12573543  0.87427270  0.20316079    -0.86430
O1474       O  0.25453341  0.89645803  0.26550656    -0.86720
O1475       O  0.32671826  0.88827021  0.20282673    -0.88060
Zr1476     Zr  0.14698880  0.82992416  0.22473406     2.83100
Zr1477     Zr  0.24544292  0.80115073  0.16115747     2.83500
Zr1478     Zr  0.18343898  0.75325911  0.22473676     2.84090
Zr1479     Zr  0.21194240  0.88027192  0.16133546     2.83360
Zr1480     Zr  0.26123995  0.86675288  0.22471354     2.84220
O1481       O  0.26022941  0.86516257  0.17697568    -1.08630
O1482       O  0.19748886  0.81679048  0.23989733    -1.08130
C1483       C  0.22264138  0.89473228  0.27526731     1.06520
C1484       C  0.33943564  0.88241025  0.17962277     1.09140
C1485       C  0.11832163  0.76291500  0.27489807     1.06700
C1486       C  0.13106399  0.89255483  0.17985262     1.07060
C1487       C  0.27812827  0.87145372  0.11228751     1.06640
C1488       C  0.26022902  0.73577909  0.20389065     1.06190
C1489       C  0.25419123  0.79245652  0.27399324     1.06620
C1490       C  0.27757010  0.96088839  0.20402193     1.06130
H1491       H  0.27032181  0.80233821  0.21609850     0.32810
O1492       O  0.24758963  0.80410169  0.20910887    -1.29730
H1493       H  0.21143465  0.90358688  0.21653702     0.32830
O1494       O  0.20976940  0.87943917  0.20931664    -1.31120
O1495       O  0.01831507  0.54186219  0.59665260    -0.86560
O1496       O  0.15008811  0.51829183  0.49613534    -0.86720
O1497       O  0.10292965  0.49366579  0.59681070    -0.88390
O1498       O  0.11769933  0.60494814  0.55503293    -0.87150
O1499       O  0.09305552  0.61283275  0.51394380    -0.86740
O1500       O  0.05470008  0.92629769  0.59841460    -0.88110
O1501       O  0.15924585  0.55361116  0.53597961    -0.86590
O1502       O  0.08612414  0.56168809  0.59890933    -0.86170
Zr1503     Zr  0.09379527  0.53207594  0.55827787     2.84310
O1504       O  0.09291204  0.53036601  0.51051313    -1.08150
O1505       O  0.02968021  0.98252176  0.57320987    -1.08880
C1506       C  0.05421029  0.56038676  0.60829444     1.06550
C1507       C  0.17172201  0.54817077  0.51250111     1.06490
C1508       C  0.08603032  0.95773023  0.60793511     1.09480
C1509       C  0.11074925  0.62624378  0.53755708     1.07260
H1510       H  0.10251299  0.96767966  0.54986460     0.32810
O1511       O  0.07979522  0.96934528  0.54274712    -1.29100
H1512       H  0.04437497  0.56930751  0.54961724     0.32490
O1513       O  0.04260118  0.54505791  0.54250984    -1.30780
O1514       O  0.03694045  0.91914331  0.45689621    -0.86550
O1515       O  0.40593612  0.94680103  0.55502611    -0.88050
O1516       O  0.06421021  0.89451032  0.55513652    -0.86630
O1517       O  0.09215522  0.55255276  0.45666133    -0.86680
O1518       O  0.49397420  0.56687330  0.49606849    -0.86390
O1519       O  0.47005961  0.91271894  0.59748078    -0.86190
O1520       O  0.44460943  0.86184923  0.49622124    -0.86560
O1521       O  0.45588113  0.97341984  0.45724058    -0.86030
O1522       O  0.47021278  0.85320179  0.53666381    -0.87090
O1523       O  0.50625412  0.53983617  0.45429982    -0.86250
O1524       O  0.09730780  0.91926891  0.51448075    -0.86650
O1525       O  0.44921725  0.95950706  0.59850868    -0.86370
O1526       O  0.45855266  0.54024084  0.53570684    -0.86020
O1527       O  0.10933847  0.50314875  0.45414940    -0.86430
O1528       O  0.96995465  0.90221063  0.45386383    -0.86720
O1529       O  0.39726664  0.91358385  0.51430436    -0.88060
Zr1530     Zr  0.07771924  0.96621514  0.49477584     2.83100
Zr1531     Zr  0.47942698  0.99591939  0.55779570     2.83500
Zr1532     Zr  0.01546144  0.91884830  0.55836448     2.84090
Zr1533     Zr  0.04525612  0.54608096  0.49450788     2.83360
Zr1534     Zr  0.46414387  0.93339998  0.49460873     2.84220
O1535       O  0.48067886  0.99686322  0.51012004    -1.08630
O1536       O  0.01406753  0.91912554  0.51058182    -1.08130
C1537       C  0.00125269  0.90167195  0.44496374     1.06520
C1538       C  0.38417584  0.91809369  0.53782873     1.09140
C1539       C  0.09274944  0.90149502  0.53794044     1.06700
C1540       C  0.10983147  0.53470643  0.44500739     1.07060
C1541       C  0.46409620  0.55837720  0.51231752     1.06640
C1542       C  0.45109180  0.92971748  0.60860566     1.06190
C1543       C  0.45287828  0.84068542  0.51285174     1.06620
C1544       C  0.47360987  0.50890463  0.44558109     1.06130
H1545       H  0.44146762  0.90925612  0.54982955     0.32810
O1546       O  0.46571680  0.93177837  0.54259665    -1.29730
H1547       H  0.02852463  0.48166129  0.45936982     0.32830
O1548       O  0.02880025  0.98171946  0.47913566    -1.31120
C1549       C  0.13050161  0.68657575  0.86572478    -0.12330
C1550       C  0.15077178  0.67182025  0.85007491     0.04670
C1551       C  0.13078837  0.63115998  0.84116838    -0.07620
C1552       C  0.09047728  0.60598559  0.84875595    -0.08370
C1553       C  0.07033256  0.62065310  0.86462699    -0.02920
C1554       C  0.09013133  0.66145763  0.87320072     0.03900
N1555       N  0.07024815  0.67764248  0.88966962     0.66410
H1556       H  0.14602776  0.71823327  0.87136540     0.15300
H1557       H  0.07501913  0.57430964  0.84316665     0.15020
N1558       N  0.15041476  0.61513502  0.82429720     0.74110
O1559       O  0.09107596  0.70928853  0.90367352    -0.39340
O1560       O  0.03228775  0.66291952  0.88839255    -0.39280
O1561       O  0.18827125  0.62924081  0.82569373    -0.39990
O1562       O  0.12940625  0.58441027  0.80950338    -0.40050
C1563       C  0.06379719  0.75658306  0.01244047    -0.12330
C1564       C  0.05319972  0.77049378  0.03554299     0.04670
C1565       C  0.01815779  0.74450134  0.05075774    -0.07620
C1566       C  0.99436136  0.70452862  0.04228224    -0.08370
C1567       C  0.00471924  0.69073063  0.01900318    -0.02920
C1568       C  0.04006749  0.71658373  0.00400677     0.03900
N1569       N  0.05201403  0.70269990  0.98032149     0.66410
H1570       H  0.09156339  0.77658749  0.00167776     0.15300
H1571       H  0.46655073  0.68458618  0.05302254     0.15020
N1572       N  0.00637871  0.75828767  0.07457002     0.74110
O1573       O  0.07258118  0.72714128  0.96165973    -0.39340
O1574       O  0.04517957  0.66693107  0.97901061    -0.39280
O1575       O  0.01234116  0.79375498  0.07572623    -0.39990
O1576       O  0.98682277  0.73397950  0.09355458    -0.40050
C1577       C  0.42888282  0.77402622  0.18508683    -0.12330
C1578       C  0.40611002  0.78800756  0.19857092     0.04670
C1579       C  0.42273366  0.82954625  0.20455499    -0.07620
C1580       C  0.46231168  0.85617801  0.19618062    -0.08370
C1581       C  0.48516247  0.84214300  0.18286934    -0.02920
C1582       C  0.46844309  0.80067574  0.17673404     0.03900
N1583       N  0.99042781  0.78511458  0.16193321     0.66410
H1584       H  0.41550613  0.74198503  0.18114599     0.15300
H1585       H  0.47577643  0.88821557  0.20016629     0.15020
N1586       N  0.40079107  0.84522988  0.21932110     0.74110
O1587       O  0.48012315  0.74837511  0.16400907    -0.39340
O1588       O  0.01693776  0.80634392  0.14449520    -0.39280
O1589       O  0.37325720  0.82371122  0.23608364    -0.39990
O1590       O  0.41184027  0.88220697  0.21776009    -0.40050
C1591       C  0.30880836  0.00823330  0.54131864    -0.12330
C1592       C  0.31711308  0.50646462  0.51375745     0.04670
C1593       C  0.28657940  0.47814859  0.49587963    -0.07620
C1594       C  0.24798913  0.95255075  0.50618454    -0.08370
C1595       C  0.23978743  0.95414553  0.53381498    -0.02920
C1596       C  0.27025513  0.98277452  0.55159210     0.03900
N1597       N  0.26239821  0.98689584  0.57985121     0.66410
H1598       H  0.33207471  0.03067011  0.55465580     0.15300
H1599       H  0.22473094  0.93005691  0.49287601     0.15020
N1600       N  0.29448044  0.47426504  0.46758653     0.74110
O1601       O  0.28920496  0.99449504  0.59791211    -0.39340
O1602       O  0.23035897  0.98674834  0.58649637    -0.39280
O1603       O  0.32677626  0.47499940  0.46084721    -0.39990
O1604       O  0.26747969  0.46621163  0.44958891    -0.40050
C1605       C  0.23893950  0.57998966  0.68871142    -0.12330
C1606       C  0.22484156  0.60500125  0.69843169     0.04670
C1607       C  0.18292609  0.58918800  0.70327489    -0.07620
C1608       C  0.15620300  0.54846563  0.69786118    -0.08370
C1609       C  0.17018352  0.52357389  0.68781706    -0.02920
C1610       C  0.21213629  0.53922539  0.68306429     0.03900
N1611       N  0.22796811  0.51507909  0.67180059     0.66410
H1612       H  0.27132404  0.59226528  0.68633610     0.15300
H1613       H  0.12383985  0.53628349  0.70033438     0.15020
N1614       N  0.16702390  0.61328629  0.71437079     0.74110
O1615       O  0.26250986  0.53185816  0.66076963    -0.39340
O1616       O  0.20922614  0.97727509  0.67441546    -0.39280
O1617       O  0.18313344  0.65024254  0.70882620    -0.39990
O1618       O  0.13411500  0.59675613  0.72745753    -0.40050
C1619       C  0.40430396  0.92076867  0.35035706    -0.12330
C1620       C  0.38904064  0.93953857  0.36705180     0.04670
C1621       C  0.34888232  0.91804908  0.37702771    -0.07620
C1622       C  0.32476418  0.87758776  0.36977334    -0.08370
C1623       C  0.33991013  0.85889281  0.35293004    -0.02920
C1624       C  0.38010948  0.88030796  0.34303912     0.03900
N1625       N  0.39643257  0.86178960  0.32540659     0.66410
H1626       H  0.43568997  0.93746058  0.34386965     0.15300
H1627       H  0.29335117  0.86093258  0.37621236     0.15020
N1628       N  0.33238646  0.93648399  0.39458741     0.74110
O1629       O  0.42575472  0.88327119  0.30978279    -0.39340
O1630       O  0.38408779  0.82453345  0.32692854    -0.39280
O1631       O  0.34407179  0.97356146  0.39271872    -0.39990
O1632       O  0.30322121  0.91493125  0.41030126    -0.40050
C1633       C  0.46859652  0.58259402  0.21524988    -0.12330
C1634       C  0.45780507  0.60548604  0.19837675     0.04670
C1635       C  0.43604622  0.58915227  0.17380211    -0.07620
C1636       C  0.42601726  0.54999136  0.16673375    -0.08370
C1637       C  0.43720340  0.52733642  0.18345691    -0.02920
C1638       C  0.45835885  0.54334289  0.20821002     0.03900
N1639       N  0.46956491  0.52070545  0.22626175     0.66410
H1640       H  0.48494022  0.59556571  0.23424098     0.15300
H1641       H  0.40955154  0.53692657  0.14779128     0.15020
N1642       N  0.42259992  0.61066366  0.15643874     0.74110
O1643       O  0.47426443  0.52858419  0.25158489    -0.39340
O1644       O  0.47733160  0.99462045  0.21697701    -0.39280
O1645       O  0.44378509  0.64838362  0.15361245    -0.39990
O1646       O  0.39129305  0.59140792  0.14162306    -0.40050
C1647       C  0.12017759  0.64561395  0.38732043    -0.12330
C1648       C  0.11932282  0.61749468  0.36839258     0.04670
C1649       C  0.10949083  0.61876533  0.34076200    -0.07620
C1650       C  0.10105862  0.64863147  0.33274689    -0.08370
C1651       C  0.10257966  0.67718552  0.35158191    -0.02920
C1652       C  0.11191940  0.67557417  0.37928176     0.03900
N1653       N  0.11442243  0.70444391  0.39919261     0.66410
H1654       H  0.12870888  0.64500412  0.40846540     0.15300
H1655       H  0.09260125  0.64931693  0.31159734     0.15020
N1656       N  0.10725577  0.58998621  0.32085366     0.74110
O1657       O  0.10459540  0.69388161  0.42374106    -0.39340
O1658       O  0.13022064  0.74127004  0.39309009    -0.39280
O1659       O  0.09338298  0.55351572  0.32729398    -0.39990
O1660       O  0.11568339  0.60015986  0.29610759    -0.40050
C1661       C  0.29866040  0.52434271  0.04086431    -0.12330
C1662       C  0.26938123  0.51242189  0.02020252     0.04670
C1663       C  0.25245892  0.97390715  0.00797770    -0.07620
C1664       C  0.26584441  0.94800736  0.01651466    -0.08370
C1665       C  0.29582925  0.96020804  0.03669516    -0.02920
C1666       C  0.31230982  0.99848740  0.04942974     0.03900
N1667       N  0.34221723  0.01121666  0.07108235     0.66410
H1668       H  0.31167200  0.55427954  0.04970600     0.15300
H1669       H  0.25253584  0.91806504  0.00761806     0.15020
N1670       N  0.22152251  0.96059895  0.98718068     0.74110
O1671       O  0.34436204  0.53589756  0.08906267    -0.39340
O1672       O  0.36852622  0.00042482  0.07125040    -0.39280
O1673       O  0.22930193  0.47824408  0.96434616    -0.39990
O1674       O  0.18919449  0.92712599  0.98974923    -0.40050
C1675       C  0.26258681  0.75445895  0.51289662    -0.12330
C1676       C  0.29383730  0.77244944  0.53222512     0.04670
C1677       C  0.31165003  0.75111795  0.54366013    -0.07620
C1678       C  0.29763876  0.71170105  0.53495864    -0.08370
C1679       C  0.26655881  0.69372747  0.51548051    -0.02920
C1680       C  0.24831759  0.71490937  0.50417064     0.03900
N1681       N  0.21510156  0.69700332  0.48462485     0.66410
H1682       H  0.24869958  0.77119728  0.50513118     0.15300
H1683       H  0.31152894  0.69508705  0.54296716     0.15020
N1684       N  0.34304970  0.76857545  0.56436972     0.74110
O1685       O  0.19154051  0.71101992  0.48204475    -0.39340
O1686       O  0.21019322  0.66887003  0.46879145    -0.39280
O1687       O  0.34679300  0.74625550  0.58174625    -0.39990
O1688       O  0.36900242  0.80575870  0.56422259    -0.40050
C1689       C  0.44031076  0.82067944  0.66707038    -0.12330
C1690       C  0.43968270  0.84777156  0.68627397     0.04670
C1691       C  0.44629441  0.84416432  0.71424138    -0.07620
C1692       C  0.45376131  0.81361134  0.72219091    -0.08370
C1693       C  0.45466341  0.78674452  0.70292732    -0.02920
C1694       C  0.44787119  0.79024495  0.67499933     0.03900
N1695       N  0.44764131  0.76298956  0.65463363     0.66410
H1696       H  0.43373697  0.82257115  0.64566706     0.15300
H1697       H  0.46020880  0.81153451  0.74359306     0.15020
N1698       N  0.44653893  0.87144032  0.73459535     0.74110
O1699       O  0.43150421  0.72576688  0.65957050    -0.39340
O1700       O  0.96029836  0.77549589  0.63077552    -0.39280
O1701       O  0.43423289  0.85904422  0.75852817    -0.39990
O1702       O  0.46238573  0.90860948  0.72956862    -0.40050
C1703       C  0.09826339  0.92597214  0.83951215    -0.12330
C1704       C  0.12009369  0.93897735  0.86405196     0.04670
C1705       C  0.12821401  0.91276893  0.87975391    -0.07620
C1706       C  0.11303787  0.87333514  0.87072871    -0.08370
C1707       C  0.09123760  0.86027837  0.84621928    -0.02920
C1708       C  0.08335092  0.88649391  0.83032732     0.03900
N1709       N  0.06006916  0.87339822  0.80523146     0.66410
H1710       H  0.09147068  0.94616404  0.82814448     0.15300
H1711       H  0.11984835  0.85320834  0.88217855     0.15020
N1712       N  0.15194460  0.92586089  0.90465234     0.74110
O1713       O  0.06604345  0.89852160  0.78655557    -0.39340
O1714       O  0.03113752  0.83758583  0.80253739    -0.39280
O1715       O  0.14484276  0.90118111  0.92385438    -0.39990
O1716       O  0.18235838  0.96096751  0.90658989    -0.40050
C1717       C  0.21477424  0.60622463  0.17508046    -0.12330
C1718       C  0.17425705  0.58127650  0.18293026     0.04670
C1719       C  0.16196057  0.54451221  0.19665341    -0.07620
C1720       C  0.19130404  0.53368420  0.20175773    -0.08370
C1721       C  0.23176233  0.55859251  0.19390401    -0.02920
C1722       C  0.24402921  0.59532719  0.18038797     0.03900
N1723       N  0.28545159  0.62143402  0.17193252     0.66410
H1724       H  0.22316357  0.63369196  0.16386036     0.15300
H1725       H  0.18309462  0.50623460  0.21294312     0.15020
N1726       N  0.12090134  0.51858593  0.20619582     0.74110
O1727       O  0.29802396  0.65802548  0.16651846    -0.39340
O1728       O  0.30869689  0.60748332  0.16762060    -0.39280
O1729       O  0.09181236  0.52292733  0.19810443    -0.39990
O1730       O  0.11356689  0.49120787  0.22340369    -0.40050
C1731       C  0.10327403  0.89214234  0.38802533    -0.12330
C1732       C  0.07530219  0.89180590  0.36887223     0.04670
C1733       C  0.08593648  0.90024531  0.34116546    -0.07620
C1734       C  0.12442291  0.90855586  0.33331212    -0.08370
C1735       C  0.15221888  0.90833377  0.35237652    -0.02920
C1736       C  0.14174596  0.90034831  0.38015567     0.03900
N1737       N  0.16889167  0.89928434  0.40034855     0.66410
H1738       H  0.09452347  0.88462305  0.40923974     0.15300
H1739       H  0.13315055  0.91608084  0.31209629     0.15020
N1740       N  0.05874106  0.90128081  0.32099570     0.74110
O1741       O  0.16833053  0.91004008  0.42471128    -0.39340
O1742       O  0.19061913  0.88403784  0.39468710    -0.39280
O1743       O  0.03637820  0.91573713  0.32685859    -0.39990
O1744       O  0.05969700  0.89113865  0.29652738    -0.40050
C1745       C  0.25243776  0.73472480  0.01148017    -0.12330
C1746       C  0.24117671  0.71695568  0.03721768     0.04670
C1747       C  0.26905643  0.71241827  0.05400567    -0.07620
C1748       C  0.30831377  0.72660913  0.04450224    -0.08370
C1749       C  0.31948920  0.74417425  0.01867959    -0.02920
C1750       C  0.29167381  0.74901370  0.00202682     0.03900
N1751       N  0.30291975  0.76858150  0.97576317     0.66410
H1752       H  0.23101904  0.73892215  0.99923387     0.15300
H1753       H  0.32971203  0.72232478  0.05670119     0.15020
N1754       N  0.25778907  0.69297609  0.08031630     0.74110
O1755       O  0.27692431  0.75767891  0.95669263    -0.39340
O1756       O  0.33762789  0.79910005  0.97227402    -0.39280
O1757       O  0.22292384  0.66274792  0.08393257    -0.39990
O1758       O  0.28390983  0.70358986  0.09928393    -0.40050
C1759       C  0.49409647  0.71750523  0.53304264    -0.12330
C1760       C  0.00909249  0.75055982  0.51550328     0.04670
C1761       C  0.04870492  0.76790660  0.50469487    -0.07620
C1762       C  0.07267440  0.75138081  0.51214160    -0.08370
C1763       C  0.05772428  0.71846747  0.52983538    -0.02920
C1764       C  0.01794094  0.70087414  0.54034702     0.03900
N1765       N  0.00173649  0.66684803  0.55866157     0.66410
H1766       H  0.46306260  0.70370965  0.54017133     0.15300
H1767       H  0.10377978  0.76527362  0.50515706     0.15020
N1768       N  0.06480351  0.80179442  0.48624550     0.74110
O1769       O  0.47401785  0.66098705  0.57525082    -0.39340
O1770       O  0.01227356  0.64057084  0.55672541    -0.39280
O1771       O  0.05334278  0.82742924  0.48749659    -0.39990
O1772       O  0.09311771  0.80808201  0.47008040    -0.40050
C1773       C  0.32439412  0.87913897  0.86574234    -0.12330
C1774       C  0.34004683  0.91431846  0.85020151     0.04670
C1775       C  0.38068688  0.93401189  0.84103436    -0.07620
C1776       C  0.40490015  0.91765282  0.84817818    -0.08370
C1777       C  0.38930826  0.88263745  0.86388001    -0.02920
C1778       C  0.34855033  0.86270047  0.87276823     0.03900
N1779       N  0.33156903  0.82657704  0.88918481     0.66410
H1780       H  0.29267328  0.86368620  0.87150987     0.15300
H1781       H  0.43665341  0.93314878  0.84249420     0.15020
N1782       N  0.39759741  0.96988636  0.82435686     0.74110
O1783       O  0.30065067  0.81675067  0.90366885    -0.39340
O1784       O  0.34493730  0.80249741  0.88754759    -0.39280
O1785       O  0.38379075  0.99364496  0.82536527    -0.39990
O1786       O  0.42865336  0.97966251  0.81003306    -0.40050
C1787       C  0.43407047  0.55977259  0.72011884    -0.12330
C1788       C  0.40634780  0.55986119  0.70096219     0.04670
C1789       C  0.41684495  0.56789853  0.67320718    -0.07620
C1790       C  0.45507564  0.57542268  0.66532232    -0.08370
C1791       C  0.48258633  0.57475944  0.68443269    -0.02920
C1792       C  0.47215629  0.56706003  0.71221817     0.03900
N1793       N  0.49891605  0.56521290  0.73237153     0.66410
H1794       H  0.42530485  0.55236666  0.74134292     0.15300
H1795       H  0.46385190  0.58267894  0.64409071     0.15020
N1796       N  0.38973059  0.56915465  0.65304739     0.74110
O1797       O  0.49871790  0.57612243  0.75674604    -0.39340
O1798       O  0.01976672  0.54901442  0.72667965    -0.39280
O1799       O  0.36678155  0.58284897  0.65912448    -0.39990
O1800       O  0.39111191  0.55975215  0.62845268    -0.40050
C1801       C  0.79493804  0.49656616  0.71518240     0.03060
C1802       C  0.83163327  0.01468124  0.70062434    -0.13090
C1803       C  0.86600347  0.04861785  0.71096980     0.00560
C1804       C  0.86384315  0.06672072  0.73484741    -0.11610
C1805       C  0.82939450  0.04850093  0.75092751     0.03050
C1806       C  0.79403345  0.01371558  0.74086738    -0.11030
H1807       H  0.83491246  0.50049433  0.68239559     0.08650
H1808       H  0.89090246  0.09367244  0.74206879     0.06180
H1809       H  0.76712966  0.99915331  0.75342739     0.06030
C1810       C  0.59501924  0.13057359  0.67116394     0.03060
C1811       C  0.55795942  0.11546422  0.68508962    -0.13090
C1812       C  0.52222028  0.08360986  0.67429896     0.00560
C1813       C  0.52304532  0.06445885  0.65055635    -0.11610
C1814       C  0.55813704  0.07962878  0.63520372     0.03050
C1815       C  0.59482950  0.11251806  0.64567371    -0.11030
H1816       H  0.55576063  0.13066148  0.70313901     0.08650
H1817       H  0.49493859  0.03895709  0.64308213     0.06180
H1818       H  0.62218627  0.12507165  0.63354801     0.06030
C1819       C  0.78074619  0.46653881  0.83620481     0.03060
C1820       C  0.80298301  0.45200520  0.85046947    -0.13090
C1821       C  0.81099090  0.42397843  0.83840010     0.00560
C1822       C  0.79428671  0.40682310  0.81337317    -0.11610
C1823       C  0.77021139  0.41824499  0.79894615     0.03050
C1824       C  0.76357765  0.44881458  0.81022521    -0.11030
H1825       H  0.81779307  0.46515711  0.86984050     0.08650
H1826       H  0.80068153  0.38433439  0.80513258     0.06180
H1827       H  0.74667430  0.45957907  0.79858096     0.06030
C1828       C  0.94825092  0.33091570  0.88037802     0.03060
C1829       C  0.92749429  0.34609153  0.86501493    -0.13090
C1830       C  0.91835908  0.37369104  0.87653524     0.00560
C1831       C  0.93306231  0.39032877  0.90204986    -0.11610
C1832       C  0.95604244  0.37866934  0.91746961     0.03050
C1833       C  0.96333834  0.34812997  0.90682306    -0.11030
H1834       H  0.91419242  0.33340497  0.84521284     0.08650
H1835       H  0.92589870  0.41247543  0.90991018     0.06180
H1836       H  0.97901758  0.33687359  0.91934554     0.06030
C1837       C  0.94880145  0.30199273  0.50255693     0.03060
C1838       C  0.97186181  0.28798733  0.51631938    -0.13090
C1839       C  0.97993516  0.26023642  0.50393074     0.00560
C1840       C  0.96273354  0.24299702  0.47902478    -0.11610
C1841       C  0.93799110  0.25403751  0.46503406     0.03050
C1842       C  0.93113328  0.28423228  0.47668012    -0.11030
H1843       H  0.48704830  0.30122939  0.53557812     0.08650
H1844       H  0.96919679  0.22066998  0.47057175     0.06180
H1845       H  0.91370856  0.29472553  0.46537438     0.06030
C1846       C  0.61564175  0.16585750  0.54677696     0.03060
C1847       C  0.59543554  0.18143841  0.53119384    -0.13090
C1848       C  0.58680850  0.20955122  0.54249875     0.00560
C1849       C  0.60118232  0.22592347  0.56814018    -0.11610
C1850       C  0.62304841  0.21331759  0.58390296     0.03050
C1851       C  0.63016053  0.18266027  0.57334898    -0.11030
H1852       H  0.58224758  0.16877660  0.51136439     0.08650
H1853       H  0.59435444  0.24834351  0.57593053     0.06180
H1854       H  0.64519880  0.17092305  0.58607626     0.06030
C1855       C  0.93132980  0.29751908  0.00461829     0.03060
C1856       C  0.93015578  0.27954557  0.97876055    -0.13090
C1857       C  0.89277566  0.24726165  0.96824722     0.00560
C1858       C  0.85784048  0.23352983  0.98357974    -0.11610
C1859       C  0.85832416  0.25246829  0.00772485     0.03050
C1860       C  0.89465751  0.28244448  0.01904061    -0.11030
H1861       H  0.95733062  0.29162162  0.96648142     0.08650
H1862       H  0.82900494  0.20920798  0.97600747     0.06180
H1863       H  0.89312520  0.29667798  0.03781087     0.06030
C1864       C  0.62878515  0.16300819  0.04924619     0.03060
C1865       C  0.66618322  0.17767630  0.03588000    -0.13090
C1866       C  0.70185754  0.20781151  0.04768612     0.00560
C1867       C  0.70108609  0.22700146  0.07133838    -0.11610
C1868       C  0.66523421  0.21380072  0.08562761     0.03050
C1869       C  0.62841894  0.18145217  0.07457813    -0.11030
H1870       H  0.66867632  0.16328680  0.01748146     0.08650
H1871       H  0.72958355  0.25149061  0.07920987     0.06180
H1872       H  0.60051310  0.16982025  0.08600366     0.06030
C1873       C  0.96273014  0.33138970  0.38177504     0.03060
C1874       C  0.96178344  0.34886898  0.40733704    -0.13090
C1875       C  0.99768217  0.38260577  0.41797341     0.00560
C1876       C  0.53289874  0.39929632  0.40262573    -0.11610
C1877       C  0.53495993  0.38091674  0.37886878     0.03050
C1878       C  0.00007367  0.34805985  0.36798554    -0.11030
H1879       H  0.93429800  0.33533729  0.41934989     0.08650
H1880       H  0.56033163  0.42558001  0.41014153     0.06180
H1881       H  0.50322685  0.33357450  0.34987609     0.06030
C1882       C  0.76462926  0.46509182  0.33826775     0.03060
C1883       C  0.72778146  0.44956301  0.35259533    -0.13090
C1884       C  0.69191912  0.41747733  0.34203595     0.00560
C1885       C  0.69247181  0.39842466  0.31814366    -0.11610
C1886       C  0.72711328  0.41399282  0.30232922     0.03050
C1887       C  0.76393842  0.44714631  0.31256817    -0.11030
H1888       H  0.72577490  0.46461865  0.37078435     0.08650
H1889       H  0.66436487  0.37272460  0.31086399     0.06180
H1890       H  0.79098732  0.45998595  0.30011692     0.06030
C1891       C  0.61702514  0.13573498  0.16899180     0.03060
C1892       C  0.63964167  0.12132391  0.18292612    -0.13090
C1893       C  0.64498142  0.09110768  0.17161216     0.00560
C1894       C  0.62701021  0.07333664  0.14694545    -0.11610
C1895       C  0.60385606  0.08578463  0.13234940     0.03050
C1896       C  0.59862791  0.11736041  0.14338540    -0.11030
H1897       H  0.65586748  0.13537550  0.20174217     0.08650
H1898       H  0.63199407  0.04977379  0.13897067     0.06180
H1899       H  0.58194927  0.12842420  0.13178273     0.06030
C1900       C  0.78404464  0.50132956  0.21277637     0.03060
C1901       C  0.76615302  0.01855487  0.19642092    -0.13090
C1902       C  0.76106099  0.04971439  0.20641715     0.00560
C1903       C  0.77547221  0.06615490  0.23207810    -0.11610
C1904       C  0.79343650  0.05053927  0.24908413     0.03050
C1905       C  0.79818634  0.01801698  0.23939359    -0.11030
H1906       H  0.75245789  0.50550377  0.17677340     0.08650
H1907       H  0.77067987  0.09021876  0.23925734     0.06180
H1908       H  0.81085475  0.00468815  0.25288043     0.06030
C1909       C  0.54202895  0.24825989  0.83525043     0.03060
C1910       C  0.56090958  0.24798341  0.81014022    -0.13090
C1911       C  0.59148658  0.28497903  0.79848051     0.00560
C1912       C  0.60186209  0.32101255  0.81172999    -0.11610
C1913       C  0.58270639  0.32142606  0.83547881     0.03050
C1914       C  0.55461017  0.28571397  0.84791828    -0.11030
H1915       H  0.55106057  0.21979901  0.79943479     0.08650
H1916       H  0.62474761  0.34969411  0.80337823     0.06180
H1917       H  0.54009998  0.28787554  0.86634331     0.06030
C1918       C  0.67595298  0.04986044  0.87971361     0.03060
C1919       C  0.65923610  0.01373143  0.86443035    -0.13090
C1920       C  0.62896279  0.47765253  0.87541848     0.00560
C1921       C  0.61148828  0.47703378  0.90022444    -0.11610
C1922       C  0.62677080  0.01148239  0.91625110     0.03050
C1923       C  0.65919047  0.04850073  0.90599053    -0.11030
H1924       H  0.67252437  0.01229036  0.84521875     0.08650
H1925       H  0.58719569  0.44842683  0.90773137     0.06180
H1926       H  0.67241170  0.07522545  0.91880554     0.06030
C1927       C  0.88094797  0.40070090  0.67158243     0.03060
C1928       C  0.89735148  0.38041920  0.68614209    -0.13090
C1929       C  0.93011848  0.37789288  0.67591774     0.00560
C1930       C  0.94895834  0.39776483  0.65207798    -0.11610
C1931       C  0.93223203  0.41530706  0.63579939     0.03050
C1932       C  0.89845950  0.41783858  0.64576502    -0.11030
H1933       H  0.88245073  0.36316067  0.70426801     0.08650
H1934       H  0.97522971  0.39641518  0.64507512     0.06180
H1935       H  0.88485602  0.43106371  0.63304463     0.06030
C1936       C  0.51291521  0.23283195  0.71593272     0.03060
C1937       C  0.49479249  0.21381362  0.74119816    -0.13090
C1938       C  0.96125270  0.21625857  0.75163696     0.00560
C1939       C  0.94551063  0.23579334  0.73637332    -0.11610
C1940       C  0.96468293  0.25685514  0.71299744     0.03050
C1941       C  0.49734801  0.25461522  0.70239724    -0.11030
H1942       H  0.50762716  0.19906046  0.75310008     0.08650
H1943       H  0.91934220  0.23710870  0.74364848     0.06180
H1944       H  0.51256120  0.27282824  0.68466612     0.06030
C1945       C  0.71132778  0.08230301  0.50246441     0.03060
C1946       C  0.72944735  0.08207585  0.47696079    -0.13090
C1947       C  0.76203198  0.11868503  0.46621033     0.00560
C1948       C  0.77609991  0.15411683  0.48112698    -0.11610
C1949       C  0.75720235  0.15469692  0.50494085     0.03050
C1950       C  0.72644269  0.11940979  0.51622667    -0.11030
H1951       H  0.71738221  0.05443751  0.46519202     0.08650
H1952       H  0.80058529  0.18246825  0.47344094     0.06180
H1953       H  0.71222195  0.12197405  0.53467085     0.06030
C1954       C  0.84461054  0.38312331  0.54736773     0.03060
C1955       C  0.82730604  0.38130845  0.57358067    -0.13090
C1956       C  0.79663016  0.34351530  0.58440870     0.00560
C1957       C  0.78476862  0.30866032  0.56934218    -0.11610
C1958       C  0.80182093  0.31029349  0.54420264     0.03050
C1959       C  0.82969181  0.34686149  0.53255238    -0.11030
H1960       H  0.83861175  0.40847046  0.58580332     0.08650
H1961       H  0.76250468  0.27940575  0.57731707     0.06180
H1962       H  0.84273746  0.34595924  0.51309823     0.06030
C1963       C  0.71417234  0.06818072  0.00512989     0.03060
C1964       C  0.72992316  0.04751748  0.01994900    -0.13090
C1965       C  0.76041394  0.04206960  0.00901963     0.00560
C1966       C  0.77859044  0.05967826  0.98459215    -0.11610
C1967       C  0.76372774  0.07940955  0.96874130     0.03050
C1968       C  0.73142244  0.08421230  0.97906202    -0.11030
H1969       H  0.71615417  0.03213413  0.03888945     0.08650
H1970       H  0.80288281  0.05530868  0.97711665     0.06180
H1971       H  0.71870924  0.09842591  0.96646301     0.06030
C1972       C  0.84769743  0.40053762  0.04888178     0.03060
C1973       C  0.83299707  0.42297660  0.03524001    -0.13090
C1974       C  0.80444254  0.43012477  0.04746944     0.00560
C1975       C  0.78694819  0.41247638  0.07201200    -0.11610
C1976       C  0.79910786  0.38880710  0.08605190     0.03050
C1977       C  0.83006156  0.38282106  0.07457924    -0.11030
H1978       H  0.84645118  0.43859612  0.01630243     0.08650
H1979       H  0.76410026  0.41834706  0.08038684     0.06180
H1980       H  0.84131245  0.36617105  0.08594016     0.06030
C1981       C  0.68029836  0.06666249  0.38198298     0.03060
C1982       C  0.66328567  0.08676507  0.36792458    -0.13090
C1983       C  0.63032403  0.08843203  0.37859619     0.00560
C1984       C  0.61211004  0.06823294  0.40241301    -0.11610
C1985       C  0.62904291  0.05021895  0.41805373     0.03050
C1986       C  0.66297567  0.04842806  0.40763686    -0.11030
H1987       H  0.67756696  0.10421452  0.34973122     0.08650
H1988       H  0.58576379  0.06920055  0.40972438     0.06180
H1989       H  0.67670046  0.03480534  0.41982205     0.06030
C1990       C  0.54794082  0.23454219  0.33760859     0.03060
C1991       C  0.56260433  0.21233255  0.35172033    -0.13090
C1992       C  0.59395153  0.20780224  0.34107129     0.00560
C1993       C  0.61314245  0.22730803  0.31725599    -0.11610
C1994       C  0.59857778  0.24753848  0.30169838     0.03050
C1995       C  0.56604385  0.25193343  0.31200666    -0.11030
H1996       H  0.54744726  0.19531053  0.36987435     0.08650
H1997       H  0.63831702  0.22425369  0.30996896     0.06180
H1998       H  0.55386308  0.26696775  0.29974178     0.06030
C1999       C  0.51229544  0.21661121  0.21379481     0.03060
C2000       C  0.49765774  0.18009849  0.19930407    -0.13090
C2001       C  0.96583517  0.14417131  0.20932264     0.00560
C2002       C  0.94716749  0.14361275  0.23363818    -0.11610
C2003       C  0.96150980  0.17819981  0.24951770     0.03050
C2004       C  0.99398794  0.21538304  0.23941899    -0.11030
H2005       H  0.51294002  0.17847454  0.18112595     0.08650
H2006       H  0.92260923  0.11500852  0.24092651     0.06180
H2007       H  0.50601666  0.24239652  0.25187998     0.06030
C2008       C  0.87954500  0.41590120  0.16994842     0.03060
C2009       C  0.89620014  0.45279499  0.18426488    -0.13090
C2010       C  0.92759281  0.48791789  0.17311647     0.00560
C2011       C  0.94505907  0.48694443  0.14868284    -0.11610
C2012       C  0.92963417  0.45160233  0.13348197     0.03050
C2013       C  0.89677765  0.41541312  0.14420316    -0.11030
H2014       H  0.88257520  0.45546312  0.20297323     0.08650
H2015       H  0.96985415  0.01500808  0.14088378     0.06180
H2016       H  0.88366204  0.38796535  0.13213828     0.06030
C2017       C  0.77871706  0.24801334  0.33752257     0.03060
C2018       C  0.80100186  0.28426238  0.35233152    -0.13090
C2019       C  0.81057574  0.32089581  0.34050018     0.00560
C2020       C  0.79525610  0.32259437  0.31517654    -0.11610
C2021       C  0.77105267  0.28769569  0.30029269     0.03050
C2022       C  0.76305010  0.24986729  0.31127606    -0.11030
H2023       H  0.81481314  0.28500597  0.37195256     0.08650
H2024       H  0.80279366  0.35188431  0.30708945     0.06180
H2025       H  0.74630544  0.22264397  0.29915728     0.06030
C2026       C  0.94574147  0.05051344  0.38186069     0.03060
C2027       C  0.92517662  0.01405607  0.36710146    -0.13090
C2028       C  0.91797883  0.47817291  0.37891194     0.00560
C2029       C  0.93413451  0.47770366  0.40415508    -0.11610
C2030       C  0.95659141  0.01298959  0.41912079     0.03050
C2031       C  0.96236360  0.04998691  0.40808052    -0.11030
H2032       H  0.91072429  0.01231579  0.34756280     0.08650
H2033       H  0.92833790  0.44893852  0.41223724     0.06180
H2034       H  0.97795429  0.07739270  0.42013863     0.06030
C2035       C  0.78072598  0.21574799  0.71418925     0.03060
C2036       C  0.76351533  0.18016961  0.69832919    -0.13090
C2037       C  0.75477727  0.14368660  0.71023880     0.00560
C2038       C  0.76903597  0.14271530  0.73614865    -0.11610
C2039       C  0.78999198  0.17763422  0.75173552     0.03050
C2040       C  0.79545185  0.21459324  0.74094374    -0.11030
H2041       H  0.75118363  0.17919017  0.67809947     0.08650
H2042       H  0.76263427  0.11383234  0.74437683     0.06180
H2043       H  0.80905449  0.24140167  0.75367174     0.06030
C2044       C  0.60907158  0.41271516  0.67197726     0.03060
C2045       C  0.62892731  0.44851592  0.68757929    -0.13090
C2046       C  0.63984699  0.48551360  0.67557427     0.00560
C2047       C  0.62572224  0.48746630  0.64980631    -0.11610
C2048       C  0.60226455  0.45275800  0.63453180     0.03050
C2049       C  0.59454048  0.41490426  0.64535453    -0.11030
H2050       H  0.64124349  0.44887758  0.70770908     0.08650
H2051       H  0.63382041  0.01683020  0.64157733     0.06180
H2052       H  0.57912221  0.38800487  0.63277671     0.06030
C2053       C  0.92998040  0.06379597  0.50213532     0.03060
C2054       C  0.89227800  0.04065217  0.51506002    -0.13090
C2055       C  0.85689770  0.03650071  0.50354124     0.00560
C2056       C  0.85860767  0.05832434  0.48066079    -0.11610
C2057       C  0.89440998  0.07973836  0.46613302     0.03050
C2058       C  0.93084395  0.08318067  0.47700848    -0.11030
H2059       H  0.88940228  0.02271559  0.53294917     0.08650
H2060       H  0.83069040  0.05614395  0.47317565     0.06180
H2061       H  0.95879873  0.09910949  0.46559889     0.06030
C2062       C  0.62738238  0.39618380  0.54735979     0.03060
C2063       C  0.66437417  0.41844692  0.53337155    -0.13090
C2064       C  0.70047572  0.42356470  0.54442850     0.00560
C2065       C  0.70008599  0.40305739  0.56775637    -0.11610
C2066       C  0.66526055  0.38285963  0.58328460     0.03050
C2067       C  0.62818390  0.37872206  0.57297847    -0.11030
H2068       H  0.66623888  0.43534038  0.51512332     0.08650
H2069       H  0.72838012  0.40578551  0.57492766     0.06180
H2070       H  0.60097138  0.36379913  0.58523313     0.06030
C2071       C  0.79465013  0.23007845  0.21308091     0.03060
C2072       C  0.83108748  0.25106884  0.19837886    -0.13090
C2073       C  0.86752538  0.25791291  0.20977265     0.00560
C2074       C  0.86860330  0.24131704  0.23460542    -0.11610
C2075       C  0.83359343  0.21976667  0.24986797     0.03050
C2076       C  0.79605277  0.21394696  0.23913263    -0.11030
H2077       H  0.83238857  0.26596059  0.17924455     0.08650
H2078       H  0.89772362  0.24707895  0.24253621     0.06180
H2079       H  0.76889195  0.19888740  0.25142787     0.06030
C2080       C  0.59712875  0.39852785  0.17006805     0.03060
C2081       C  0.56009806  0.37726460  0.18406288    -0.13090
C2082       C  0.52443459  0.37208931  0.17245414     0.00560
C2083       C  0.52477943  0.39028902  0.14804488    -0.11610
C2084       C  0.56038706  0.41167899  0.13327076     0.03050
C2085       C  0.59719086  0.41619806  0.14432405    -0.11030
H2086       H  0.55775946  0.36119199  0.20283458     0.08650
H2087       H  0.49617870  0.38575866  0.13994872     0.06180
H2088       H  0.62482384  0.43143825  0.13251633     0.06030
C2089       C  0.94367673  0.07931298  0.00469062     0.03060
C2090       C  0.92706960  0.08055955  0.97867031    -0.13090
C2091       C  0.93387942  0.11800283  0.96776033     0.00560
C2092       C  0.95713884  0.15306330  0.98270047    -0.11610
C2093       C  0.97442350  0.15223386  0.00742904     0.03050
C2094       C  0.96634069  0.11591598  0.01912699    -0.11030
H2095       H  0.91066076  0.05323385  0.96660687     0.08650
H2096       H  0.96327219  0.18200946  0.97476695     0.06180
H2097       H  0.98146510  0.11719947  0.03828298     0.06030
C2098       C  0.61095021  0.38226696  0.04860513     0.03060
C2099       C  0.62891653  0.38252347  0.07441224    -0.13090
C2100       C  0.62384587  0.34592572  0.08558321     0.00560
C2101       C  0.60135824  0.31030714  0.07097909    -0.11610
C2102       C  0.58281029  0.30970133  0.04651948     0.03050
C2103       C  0.58878995  0.34518602  0.03466505    -0.11030
H2104       H  0.64501694  0.41024899  0.08609875     0.08650
H2105       H  0.59673619  0.28193212  0.07902342     0.06180
H2106       H  0.57270402  0.34283770  0.01574830     0.06030
C2107       C  0.76270939  0.23010602  0.83683774     0.03060
C2108       C  0.76239087  0.24707289  0.81088222    -0.13090
C2109       C  0.72518834  0.24104362  0.79942789     0.00560
C2110       C  0.68936479  0.21766621  0.81367714    -0.11610
C2111       C  0.68965404  0.20118023  0.83871712     0.03050
C2112       C  0.72583402  0.20898753  0.85103040    -0.11030
H2113       H  0.79015919  0.26310444  0.79928965     0.08650
H2114       H  0.66037316  0.21144346  0.80520589     0.06180
H2115       H  0.72405000  0.19442586  0.87040271     0.06030
C2116       C  0.95910250  0.06086251  0.88007324     0.03060
C2117       C  0.99524975  0.08156678  0.86502796    -0.13090
C2118       C  0.53228498  0.09117392  0.87691544     0.00560
C2119       C  0.53423923  0.07662026  0.90240671    -0.11610
C2120       C  0.99925124  0.05339873  0.91741239     0.03050
C2121       C  0.96119335  0.04588639  0.90643108    -0.11030
H2122       H  0.99579560  0.09469108  0.84527509     0.08650
H2123       H  0.56377110  0.08411819  0.91058989     0.06180
H2124       H  0.93405412  0.03023433  0.91869391     0.06030
O2125       O  0.86901220  0.08456113  0.78981766    -0.86560
O2126       O  0.73834298  0.11240648  0.88795840    -0.86720
O2127       O  0.77710100  0.02680816  0.82953708    -0.88390
O2128       O  0.78805054  0.13789134  0.79016292    -0.87150
O2129       O  0.83813344  0.20450610  0.78772752    -0.86740
O2130       O  0.80221995  0.01802214  0.87011600    -0.88110
O2131       O  0.72954361  0.07874333  0.84738672    -0.86590
O2132       O  0.80187128  0.06724584  0.78725725    -0.86170
Zr2133     Zr  0.79627685  0.09844821  0.82797257     2.84310
O2134       O  0.81272115  0.16192679  0.84371046    -1.08150
O2135       O  0.84607177  0.08400122  0.84377797    -1.08880
C2136       C  0.83318822  0.06703601  0.77808531     1.06550
C2137       C  0.71640883  0.08381791  0.87067991     1.06490
C2138       C  0.78508186  0.00550641  0.84626765     1.09480
C2139       C  0.80590739  0.17345732  0.77862928     1.07260
H2140       H  0.77356492  0.07460132  0.88318866     0.32810
O2141       O  0.79791771  0.09703281  0.87598148    -1.29100
H2142       H  0.86050231  0.14689288  0.79276032     0.32490
O2143       O  0.86077938  0.14689618  0.81252380    -1.30780
O2144       O  0.85180948  0.20790740  0.93017240    -0.86550
O2145       O  0.98189173  0.18349711  0.82928513    -0.88050
O2146       O  0.80182138  0.07704233  0.93053058    -0.86630
O2147       O  0.82619325  0.23235141  0.83008789    -0.86680
O2148       O  0.92399678  0.21797010  0.79015805    -0.86390
O2149       O  0.89602665  0.05920266  0.88811780    -0.86190
O2150       O  0.93434060  0.15826015  0.92995272    -0.86560
O2151       O  0.95034358  0.26995685  0.88843544    -0.86030
O2152       O  0.88618490  0.09091715  0.93175926    -0.87090
O2153       O  0.92541763  0.27788070  0.84748712    -0.86250
O2154       O  0.78173388  0.12438399  0.93194759    -0.86650
O2155       O  0.92877994  0.08382544  0.84734525    -0.86370
O2156       O  0.94097848  0.16844440  0.78731119    -0.86020
O2157       O  0.79144367  0.20615832  0.87000223    -0.86430
O2158       O  0.91965948  0.22785782  0.93196033    -0.86720
O2159       O  0.99154471  0.21799020  0.86959027    -0.88060
Zr2160     Zr  0.81198678  0.16124523  0.89145447     2.83100
Zr2161     Zr  0.90962761  0.13121645  0.82792218     2.83500
Zr2162     Zr  0.84751973  0.08377008  0.89155038     2.84090
Zr2163     Zr  0.87717276  0.21119509  0.82802067     2.83360
Zr2164     Zr  0.92603306  0.19700227  0.89150478     2.84220
O2165       O  0.92483817  0.19533435  0.84376610    -1.08630
O2166       O  0.86205572  0.14749144  0.90669553    -1.08130
C2167       C  0.88801176  0.22693962  0.94150436     1.06520
C2168       C  0.00355352  0.21321964  0.84575263     1.09140
C2169       C  0.78306325  0.09415693  0.94175705     1.06700
C2170       C  0.79676239  0.22431562  0.84665305     1.07060
C2171       C  0.94158598  0.20016395  0.77836781     1.06640
C2172       C  0.92433184  0.06600421  0.87077266     1.06190
C2173       C  0.91741514  0.12246135  0.94121211     1.06620
C2174       C  0.94332307  0.29129630  0.87105780     1.06130
H2175       H  0.93458791  0.13241209  0.88296381     0.32810
O2176       O  0.91191177  0.13421754  0.87590990    -1.29730
H2177       H  0.87686675  0.23451552  0.88309112     0.32830
O2178       O  0.87496168  0.21021860  0.87596573    -1.31120
O2179       O  0.95586158  0.41959798  0.95488148    -0.86560
O2180       O  0.61411891  0.44584373  0.05523659    -0.86720
O2181       O  0.58873514  0.47094906  0.95444230    -0.88390
O2182       O  0.99432098  0.35906220  0.99668678    -0.87150
O2183       O  0.96120054  0.35096453  0.03730599    -0.86740
O2184       O  0.60914202  0.03845279  0.95325837    -0.88110
O2185       O  0.58787435  0.41124319  0.01500168    -0.86590
O2186       O  0.00369472  0.39989787  0.95349570    -0.86170
Zr2187     Zr  0.54296069  0.43208306  0.99338674     2.84310
O2188       O  0.54423317  0.43352595  0.04116343    -1.08150
O2189       O  0.52894265  0.48164570  0.97816726    -1.08880
C2190       C  0.97249088  0.40017321  0.94392088     1.06550
C2191       C  0.60577158  0.41637073  0.03861293     1.06490
C2192       C  0.60762923  0.50686639  0.94332212     1.09480
C2193       C  0.96585237  0.33758535  0.01392784     1.07260
H2194       H  0.61687267  0.49651676  0.00191227     0.32810
O2195       O  0.59258720  0.49475472  0.00912845    -1.29100
H2196       H  0.95602730  0.39410973  0.00189570     0.32490
O2197       O  0.97873135  0.41852284  0.00898142    -1.30780
O2198       O  0.60328291  0.04606891  0.09442107    -0.86550
O2199       O  0.94074271  0.01597187  0.99677392    -0.88050
O2200       O  0.65246472  0.06962793  0.99716249    -0.86630
O2201       O  0.02089980  0.41003522  0.09466988    -0.86680
O2202       O  0.90844138  0.39708875  0.05520463    -0.86390
O2203       O  0.54032704  0.05420999  0.95527540    -0.86190
O2204       O  0.56477812  0.10215365  0.05554576    -0.86560
O2205       O  0.96677138  0.99050063  0.09496637    -0.86030
O2206       O  0.60011033  0.11051799  0.01592920    -0.87090
O2207       O  0.94955501  0.42395134  0.09761016    -0.86250
O2208       O  0.66095290  0.04447411  0.03769951    -0.86650
O2209       O  0.97260618  0.00606161  0.95317839    -0.86370
O2210       O  0.89944544  0.42313947  0.01524261    -0.86020
O2211       O  0.58784868  0.45993083  0.09778878    -0.86430
O2212       O  0.55336633  0.06272888  0.09747470    -0.86720
O2213       O  0.96579073  0.04879371  0.03775796    -0.88060
Zr2214     Zr  0.59414419  0.49755465  0.05715062     2.83100
Zr2215     Zr  0.96498618  0.46735822  0.99327267     2.83500
Zr2216     Zr  0.57902270  0.04531275  0.99378151     2.84090
Zr2217     Zr  0.98072614  0.41752391  0.05696433     2.83360
Zr2218     Zr  0.51378800  0.03005749  0.05724329     2.84220
O2219       O  0.96598209  0.46674483  0.04109820    -1.08630
O2220       O  0.57810317  0.04489964  0.04151425    -1.08130
C2221       C  0.58597606  0.06419899  0.10610967     1.06520
C2222       C  0.94801070  0.04440657  0.01415688     1.09140
C2223       C  0.67415282  0.06256100  0.01437269     1.06700
C2224       C  0.55659060  0.42792563  0.10656588     1.07060
C2225       C  0.88694449  0.40537186  0.03874375     1.06640
C2226       C  0.50417883  0.03723963  0.94392299     1.06190
C2227       C  0.59459790  0.12337336  0.03922971     1.06620
C2228       C  0.94907326  0.45510660  0.10665715     1.06130
H2229       H  0.51432447  0.05386526  0.00220924     0.32810
O2230       O  0.51608322  0.03135996  0.00925320    -1.29730
H2231       H  0.53005399  0.48196200  0.09249235     0.32830
O2232       O  0.52974530  0.48178565  0.07272460    -1.31120
O2233       O  0.93731444  0.21425814  0.42713919    -0.86560
O2234       O  0.77530562  0.18450751  0.32956695    -0.86720
O2235       O  0.89923639  0.27000146  0.38809930    -0.88390
O2236       O  0.80047718  0.15804842  0.42797369    -0.87150
O2237       O  0.78300801  0.09144794  0.43065582    -0.86740
O2238       O  0.93528563  0.27823687  0.34883636    -0.88110
O2239       O  0.79998701  0.21691497  0.37070291    -0.86590
O2240       O  0.88723949  0.23066189  0.43039234    -0.86170
Zr2241     Zr  0.84782828  0.19799349  0.39019899     2.84310
O2242       O  0.79979328  0.13478227  0.37416806    -1.08150
O2243       O  0.91210798  0.21266120  0.37439433    -1.08880
C2244       C  0.91998230  0.23231498  0.43888815     1.06550
C2245       C  0.78254123  0.21284265  0.34700815     1.06490
C2246       C  0.92930180  0.29120767  0.37192572     1.09480
C2247       C  0.78242287  0.12255774  0.43963930     1.07260
H2248       H  0.84872507  0.22191213  0.33509517     0.32810
O2249       O  0.85030581  0.19932261  0.34217368    -1.29100
H2250       H  0.86403900  0.15003253  0.42551208     0.32490
O2251       O  0.86375081  0.14978054  0.40574406    -1.30780
O2252       O  0.79068984  0.08900455  0.28721511    -0.86550
O2253       O  0.94845055  0.11394721  0.38857344    -0.88050
O2254       O  0.87429994  0.22101486  0.28799044    -0.86630
O2255       O  0.74218245  0.06522323  0.38840165    -0.86680
O2256       O  0.85516859  0.07860129  0.42763417    -0.86390
O2257       O  0.98655321  0.23664520  0.32976740    -0.86190
O2258       O  0.92259493  0.13780392  0.28760823    -0.86560
O2259       O  0.82752848  0.02666066  0.33021289    -0.86030
O2260       O  0.94297642  0.20528408  0.28609316    -0.87090
O2261       O  0.79422252  0.01881883  0.37070717    -0.86250
O2262       O  0.80634701  0.17348364  0.28610841    -0.86650
O2263       O  0.99507399  0.21185668  0.37045266    -0.86370
O2264       O  0.92216261  0.12834545  0.43089724    -0.86020
O2265       O  0.73320458  0.09208545  0.34883260    -0.86430
O2266       O  0.83819291  0.06877106  0.28639001    -0.86720
O2267       O  0.92153467  0.07891800  0.34858360    -0.88060
Zr2268     Zr  0.79881373  0.13534706  0.32637150     2.83100
Zr2269     Zr  0.92817004  0.16542759  0.39013575     2.83500
Zr2270     Zr  0.91319352  0.21285423  0.32665571     2.84090
Zr2271     Zr  0.81448660  0.08558711  0.39006240     2.83360
Zr2272     Zr  0.87659505  0.09957515  0.32669015     2.84220
O2273       O  0.87800620  0.10124083  0.37442931    -1.08630
O2274       O  0.86274887  0.14920758  0.31152273    -1.08130
C2275       C  0.80780294  0.07002996  0.27627224     1.06520
C2276       C  0.93998376  0.08437745  0.37202521     1.09140
C2277       C  0.83816078  0.20412086  0.27662860     1.06700
C2278       C  0.72055229  0.07358134  0.37211375     1.07060
C2279       C  0.89082769  0.09638938  0.43959114     1.06640
C2280       C  0.00819356  0.22952302  0.34698303     1.06190
C2281       C  0.94158224  0.17363150  0.27634688     1.06620
C2282       C  0.79893343  0.00532405  0.34742557     1.06130
H2283       H  0.95061777  0.16369031  0.33494409     0.32810
O2284       O  0.92646918  0.16222086  0.34216017    -1.29730
H2285       H  0.78957452  0.06196302  0.33483901     0.32830
O2286       O  0.81229853  0.08627235  0.34203818    -1.31120
O2287       O  0.73231140  0.43473128  0.72201331    -0.86560
O2288       O  0.75586386  0.30270128  0.62193021    -0.86720
O2289       O  0.81877553  0.40122460  0.66367747    -0.88390
O2290       O  0.70605004  0.38438805  0.62147990    -0.87150
O2291       O  0.63789370  0.33743275  0.61983051    -0.86740
O2292       O  0.82711500  0.37545404  0.70401226    -0.88110
O2293       O  0.77658049  0.37023074  0.62040085    -0.86590
O2294       O  0.76829709  0.44265057  0.68279874    -0.86170
Zr2295     Zr  0.74548033  0.37725840  0.66042837     2.84310
O2296       O  0.69479059  0.31383343  0.64522562    -1.08150
O2297       O  0.74461493  0.37676214  0.70816245    -1.08880
C2298       C  0.76229465  0.45580739  0.70579949     1.06550
C2299       C  0.77554906  0.33866041  0.61085288     1.06490
C2300       C  0.84044046  0.39399325  0.68078610     1.09480
C2301       C  0.66983819  0.36756366  0.61013913     1.07260
H2302       H  0.78256645  0.32792310  0.66892746     0.32810
O2303       O  0.75839660  0.32645565  0.67609580    -1.29100
H2304       H  0.68124747  0.38717360  0.66868209     0.32490
O2305       O  0.68282884  0.36461276  0.67583415    -1.30780
O2306       O  0.65831132  0.19157326  0.66351177    -0.86550
O2307       O  0.63203442  0.32380873  0.76086922    -0.88050
O2308       O  0.78139483  0.27824324  0.72154932    -0.86630
O2309       O  0.62203287  0.25319623  0.62172310    -0.86680
O2310       O  0.60740893  0.34981664  0.66375060    -0.86390
O2311       O  0.76964640  0.37808717  0.76121446    -0.86190
O2312       O  0.68567752  0.24108091  0.76130062    -0.86560
O2313       O  0.57410277  0.23018613  0.72235534    -0.86030
O2314       O  0.75285059  0.29031099  0.76443681    -0.87090
O2315       O  0.56554477  0.25728368  0.68275734    -0.86250
O2316       O  0.75271600  0.24226794  0.68213209    -0.86650
O2317       O  0.72001486  0.39521348  0.76407905    -0.86370
O2318       O  0.63382935  0.38340274  0.70427743    -0.86020
O2319       O  0.66974188  0.23328249  0.62026306    -0.86430
O2320       O  0.62463037  0.18381198  0.70385102    -0.86720
O2321       O  0.61468851  0.25737948  0.76434654    -0.88060
Zr2322     Zr  0.70849209  0.26409358  0.66045662     2.83100
Zr2323     Zr  0.68065563  0.36306927  0.72383835     2.83500
Zr2324     Zr  0.76018440  0.32913731  0.72408529     2.84090
Zr2325     Zr  0.63108443  0.30058935  0.66037865     2.83360
Zr2326     Zr  0.64628450  0.25039183  0.72400190     2.84220
O2327       O  0.63212635  0.29996910  0.70811902    -1.08630
O2328       O  0.70966718  0.26515771  0.70828785    -1.08130
C2329       C  0.62932385  0.17045308  0.68050691     1.06520
C2330       C  0.61357185  0.28852945  0.77269816     1.09140
C2331       C  0.77272089  0.24856430  0.70499883     1.06700
C2332       C  0.63881089  0.23399712  0.61062580     1.07060
C2333       C  0.61492785  0.37843237  0.68105658     1.06640
C2334       C  0.75248345  0.39648974  0.77276875     1.06190
C2335       C  0.72142344  0.25826731  0.77306661     1.06620
C2336       C  0.55277689  0.23889426  0.70604995     1.06130
H2337       H  0.69608717  0.31451541  0.75942667     0.32810
O2338       O  0.69595134  0.31438290  0.73965458    -1.29790
H2339       H  0.62149171  0.22765785  0.66877798     0.32830
O2340       O  0.64452468  0.25163677  0.67602206    -1.31120
O2341       O  0.70477230  0.25302825  0.12377863    -0.86560
O2342       O  0.57362238  0.28018858  0.22174247    -0.86720
O2343       O  0.61286356  0.19577649  0.16257740    -0.88390
O2344       O  0.62348492  0.30701624  0.12382046    -0.87150
O2345       O  0.67334173  0.37360064  0.12084808    -0.86740
O2346       O  0.63919868  0.18752996  0.20279021    -0.88110
O2347       O  0.56507335  0.24712525  0.18093072    -0.86590
O2348       O  0.63771051  0.23555457  0.12059812    -0.86170
Zr2349     Zr  0.63188095  0.26731907  0.16115813     2.84310
O2350       O  0.64766707  0.33057212  0.17697688    -1.08150
O2351       O  0.68209657  0.25362537  0.17702542    -1.08880
C2352       C  0.66902088  0.23477273  0.11195006     1.06550
C2353       C  0.55198999  0.25149436  0.20448384     1.06490
C2354       C  0.62154650  0.17477922  0.17909418     1.09480
C2355       C  0.64099749  0.34240002  0.11208406     1.07260
H2356       H  0.60948461  0.24322099  0.21636207     0.32810
O2357       O  0.63358009  0.26594140  0.20915270    -1.29100
H2358       H  0.69607309  0.31619325  0.12581974     0.32490
O2359       O  0.69622546  0.31621273  0.14558903    -1.30780
O2360       O  0.68649009  0.37577455  0.26386731    -0.86550
O2361       O  0.81789490  0.35254433  0.16322239    -0.88050
O2362       O  0.63738865  0.24613904  0.26361553    -0.86630
O2363       O  0.66059005  0.40084537  0.16333126    -0.86680
O2364       O  0.76008459  0.38873733  0.12411201    -0.86390
O2365       O  0.73186962  0.22877983  0.22121441    -0.86190
O2366       O  0.77077252  0.32835051  0.26289211    -0.86560
O2367       O  0.78480690  0.43966839  0.22140888    -0.86030
O2368       O  0.72286262  0.26091599  0.26462827    -0.87090
O2369       O  0.75899824  0.44714703  0.18072048    -0.86250
O2370       O  0.61678839  0.29308261  0.26520156    -0.86650
O2371       O  0.76488450  0.25396219  0.18059023    -0.86370
O2372       O  0.77704574  0.33930048  0.12081198    -0.86020
O2373       O  0.62573543  0.37427270  0.20316079    -0.86430
O2374       O  0.75453341  0.39645803  0.26550656    -0.86720
O2375       O  0.82671826  0.38827021  0.20282673    -0.88060
Zr2376     Zr  0.64698880  0.32992416  0.22473406     2.83100
Zr2377     Zr  0.74544292  0.30115073  0.16115747     2.83500
Zr2378     Zr  0.68343898  0.25325911  0.22473675     2.84090
Zr2379     Zr  0.71194240  0.38027192  0.16133546     2.83360
Zr2380     Zr  0.76123995  0.36675288  0.22471354     2.84220
O2381       O  0.76022941  0.36516257  0.17697568    -1.08630
O2382       O  0.69748886  0.31679048  0.23989732    -1.08130
C2383       C  0.72264137  0.39473228  0.27526731     1.06520
C2384       C  0.83943564  0.38241025  0.17962277     1.09140
C2385       C  0.61832163  0.26291500  0.27489807     1.06700
C2386       C  0.63106398  0.39255482  0.17985262     1.07060
C2387       C  0.77812827  0.37145372  0.11228751     1.06640
C2388       C  0.76022902  0.23577908  0.20389065     1.06190
C2389       C  0.75419123  0.29245652  0.27399324     1.06620
C2390       C  0.77757010  0.46088838  0.20402192     1.06130
H2391       H  0.77032181  0.30233821  0.21609850     0.32810
O2392       O  0.74758963  0.30410168  0.20910887    -1.29730
H2393       H  0.71143465  0.40358687  0.21653702     0.32830
O2394       O  0.70976940  0.37943917  0.20931664    -1.31120
O2395       O  0.51831508  0.04186219  0.59665260    -0.86560
O2396       O  0.65008811  0.01829182  0.49613534    -0.86720
O2397       O  0.60292965  0.99366578  0.59681070    -0.88390
O2398       O  0.61769933  0.10494814  0.55503293    -0.87150
O2399       O  0.59305552  0.11283275  0.51394380    -0.86740
O2400       O  0.55470009  0.42629769  0.59841460    -0.88110
O2401       O  0.65924585  0.05361114  0.53597961    -0.86590
O2402       O  0.58612415  0.06168809  0.59890933    -0.86170
Zr2403     Zr  0.59379527  0.03207594  0.55827787     2.84310
O2404       O  0.59291204  0.03036601  0.51051313    -1.08150
O2405       O  0.52968022  0.48252177  0.57320987    -1.08880
C2406       C  0.55421030  0.06038676  0.60829444     1.06550
C2407       C  0.67172201  0.04817076  0.51250111     1.06490
C2408       C  0.58603034  0.45773024  0.60793510     1.09480
C2409       C  0.61074926  0.12624377  0.53755709     1.07260
H2410       H  0.60251300  0.46767967  0.54986460     0.32810
O2411       O  0.57979523  0.46934529  0.54274712    -1.29100
H2412       H  0.54437497  0.06930751  0.54961725     0.32490
O2413       O  0.54260119  0.04505791  0.54250985    -1.30780
O2414       O  0.53694046  0.41914331  0.45689621    -0.86550
O2415       O  0.90593611  0.44680103  0.55502610    -0.88050
O2416       O  0.56421022  0.39451032  0.55513652    -0.86630
O2417       O  0.59215521  0.05255276  0.45666133    -0.86680
O2418       O  0.99397420  0.06687330  0.49606849    -0.86390
O2419       O  0.97005962  0.41271894  0.59748078    -0.86190
O2420       O  0.94460943  0.36184922  0.49622124    -0.86560
O2421       O  0.95588114  0.47341984  0.45724058    -0.86030
O2422       O  0.97021279  0.35320179  0.53666381    -0.87090
O2423       O  0.00625412  0.03983617  0.45429982    -0.86250
O2424       O  0.59730780  0.41926892  0.51448075    -0.86650
O2425       O  0.94921725  0.45950706  0.59850868    -0.86370
O2426       O  0.95855266  0.04024083  0.53570684    -0.86020
O2427       O  0.60933847  0.00314875  0.45414940    -0.86430
O2428       O  0.46995465  0.40221064  0.45386383    -0.86720
O2429       O  0.89726664  0.41358385  0.51430436    -0.88060
Zr2430     Zr  0.57771925  0.46621515  0.49477584     2.83100
Zr2431     Zr  0.97942698  0.49591939  0.55779569     2.83500
Zr2432     Zr  0.51546144  0.41884831  0.55836448     2.84090
Zr2433     Zr  0.54525612  0.04608096  0.49450788     2.83360
Zr2434     Zr  0.96414387  0.43339998  0.49460873     2.84220
O2435       O  0.98067886  0.49686322  0.51012003    -1.08630
O2436       O  0.51406754  0.41912554  0.51058182    -1.08130
C2437       C  0.50125270  0.40167196  0.44496374     1.06520
C2438       C  0.88417584  0.41809369  0.53782873     1.09140
C2439       C  0.59274945  0.40149502  0.53794044     1.06700
C2440       C  0.60983147  0.03470643  0.44500739     1.07060
C2441       C  0.96409620  0.05837719  0.51231752     1.06640
C2442       C  0.95109180  0.42971749  0.60860565     1.06190
C2443       C  0.95287828  0.34068541  0.51285174     1.06620
C2444       C  0.97360987  0.00890463  0.44558109     1.06130
H2445       H  0.94146762  0.40925611  0.54982954     0.32810
O2446       O  0.96571680  0.43177836  0.54259665    -1.29730
H2447       H  0.52852463  0.98166129  0.45936982     0.32830
O2448       O  0.52880026  0.48171947  0.47913566    -1.31120
C2449       C  0.63050161  0.18657574  0.86572477    -0.12330
C2450       C  0.65077178  0.17182023  0.85007491     0.04670
C2451       C  0.63078838  0.13115996  0.84116837    -0.07620
C2452       C  0.59047729  0.10598557  0.84875595    -0.08370
C2453       C  0.57033256  0.12065308  0.86462698    -0.02920
C2454       C  0.59013133  0.16145761  0.87320071     0.03900
N2455       N  0.57024815  0.17764246  0.88966961     0.66410
H2456       H  0.64602776  0.21823325  0.87136539     0.15300
H2457       H  0.57501914  0.07430963  0.84316664     0.15020
N2458       N  0.65041477  0.11513500  0.82429720     0.74110
O2459       O  0.59107596  0.20928850  0.90367351    -0.39340
O2460       O  0.53228775  0.16291950  0.88839254    -0.39280
O2461       O  0.68827126  0.12924080  0.82569373    -0.39990
O2462       O  0.62940626  0.08441024  0.80950338    -0.40050
C2463       C  0.56379721  0.25658306  0.01244045    -0.12330
C2464       C  0.55319975  0.27049378  0.03554298     0.04670
C2465       C  0.51815782  0.24450134  0.05075773    -0.07620
C2466       C  0.49436140  0.20452862  0.04228224    -0.08370
C2467       C  0.50471927  0.19073063  0.01900317    -0.02920
C2468       C  0.54006751  0.21658374  0.00400675     0.03900
N2469       N  0.55201404  0.20269991  0.98032148     0.66410
H2470       H  0.59156341  0.27658749  0.00167775     0.15300
H2471       H  0.96655075  0.18458618  0.05302255     0.15020
N2472       N  0.50637875  0.25828767  0.07457002     0.74110
O2473       O  0.57258119  0.22714130  0.96165971    -0.39340
O2474       O  0.54517959  0.16693108  0.97901059    -0.39280
O2475       O  0.51234119  0.29375497  0.07572622    -0.39990
O2476       O  0.48682281  0.23397949  0.09355458    -0.40050
C2477       C  0.92888281  0.27402621  0.18508682    -0.12330
C2478       C  0.90611002  0.28800754  0.19857091     0.04670
C2479       C  0.92273366  0.32954624  0.20455498    -0.07620
C2480       C  0.96231167  0.35617799  0.19618062    -0.08370
C2481       C  0.98516246  0.34214298  0.18286933    -0.02920
C2482       C  0.96844309  0.30067573  0.17673403     0.03900
N2483       N  0.49042781  0.28511456  0.16193321     0.66410
H2484       H  0.91550613  0.24198502  0.18114599     0.15300
H2485       H  0.97577642  0.38821555  0.20016629     0.15020
N2486       N  0.90079106  0.34522987  0.21932110     0.74110
O2487       O  0.98012314  0.24837510  0.16400906    -0.39340
O2488       O  0.51693776  0.30634390  0.14449519    -0.39280
O2489       O  0.87325720  0.32371120  0.23608363    -0.39990
O2490       O  0.91184026  0.38220695  0.21776008    -0.40050
C2491       C  0.80880836  0.50823331  0.54131864    -0.12330
C2492       C  0.81711307  0.00646461  0.51375745     0.04670
C2493       C  0.78657939  0.97814857  0.49587962    -0.07620
C2494       C  0.74798914  0.45255076  0.50618454    -0.08370
C2495       C  0.73978744  0.45414554  0.53381498    -0.02920
C2496       C  0.77025514  0.48277452  0.55159210     0.03900
N2497       N  0.76239822  0.48689585  0.57985121     0.66410
H2498       H  0.83207471  0.53067012  0.55465580     0.15300
H2499       H  0.72473094  0.43005691  0.49287601     0.15020
N2500       N  0.79448043  0.97426503  0.46758653     0.74110
O2501       O  0.78920497  0.49449504  0.59791211    -0.39340
O2502       O  0.73035897  0.48674834  0.58649638    -0.39280
O2503       O  0.82677625  0.97499939  0.46084721    -0.39990
O2504       O  0.76747968  0.96621162  0.44958891    -0.40050
C2505       C  0.73893951  0.07998968  0.68871141    -0.12330
C2506       C  0.72484156  0.10500126  0.69843169     0.04670
C2507       C  0.68292609  0.08918798  0.70327490    -0.07620
C2508       C  0.65620301  0.04846562  0.69786119    -0.08370
C2509       C  0.67018355  0.02357390  0.68781705    -0.02920
C2510       C  0.71213631  0.03922541  0.68306427     0.03900
N2511       N  0.72796814  0.01507913  0.67180055     0.66410
H2512       H  0.77132406  0.09226532  0.68633608     0.15300
H2513       H  0.62383987  0.03628346  0.70033439     0.15020
N2514       N  0.66702390  0.11328626  0.71437082     0.74110
O2515       O  0.76250991  0.03185821  0.66076961    -0.39340
O2516       O  0.70922623  0.47727521  0.67441526    -0.39280
O2517       O  0.68313343  0.15024252  0.70882626    -0.39990
O2518       O  0.63411499  0.09675608  0.72745756    -0.40050
C2519       C  0.90430395  0.42076866  0.35035707    -0.12330
C2520       C  0.88904062  0.43953856  0.36705180     0.04670
C2521       C  0.84888231  0.41804907  0.37702771    -0.07620
C2522       C  0.82476416  0.37758775  0.36977335    -0.08370
C2523       C  0.83991011  0.35889280  0.35293005    -0.02920
C2524       C  0.88010946  0.38030795  0.34303912     0.03900
N2525       N  0.89643255  0.36178959  0.32540660     0.66410
H2526       H  0.93568995  0.43746057  0.34386966     0.15300
H2527       H  0.79335115  0.36093258  0.37621237     0.15020
N2528       N  0.83238645  0.43648399  0.39458742     0.74110
O2529       O  0.92575470  0.38327117  0.30978279    -0.39340
O2530       O  0.88408777  0.32453344  0.32692855    -0.39280
O2531       O  0.84407178  0.47356146  0.39271873    -0.39990
O2532       O  0.80322119  0.41493125  0.41030126    -0.40050
C2533       C  0.96859655  0.08259405  0.21524985    -0.12330
C2534       C  0.95780505  0.10548604  0.19837674     0.04670
C2535       C  0.93604616  0.08915225  0.17380212    -0.07620
C2536       C  0.92601720  0.04999134  0.16673376    -0.08370
C2537       C  0.93720339  0.02733642  0.18345691    -0.02920
C2538       C  0.95835888  0.04334293  0.20821000     0.03900
N2539       N  0.96956500  0.02070551  0.22626172     0.66410
H2540       H  0.98494029  0.09556576  0.23424094     0.15300
H2541       H  0.90955144  0.03692653  0.14779131     0.15020
N2542       N  0.92259981  0.11066362  0.15643876     0.74110
O2543       O  0.97426462  0.02858431  0.25158485    -0.39340
O2544       O  0.97733164  0.49462045  0.21697697    -0.39280
O2545       O  0.94378492  0.14838360  0.15361251    -0.39990
O2546       O  0.89129297  0.09140786  0.14162307    -0.40050
C2547       C  0.62017758  0.14561394  0.38732043    -0.12330
C2548       C  0.61932281  0.11749467  0.36839258     0.04670
C2549       C  0.60949082  0.11876531  0.34076200    -0.07620
C2550       C  0.60105861  0.14863146  0.33274689    -0.08370
C2551       C  0.60257964  0.17718550  0.35158191    -0.02920
C2552       C  0.61191939  0.17557416  0.37928176     0.03900
N2553       N  0.61442242  0.20444390  0.39919260     0.66410
H2554       H  0.62870887  0.14500411  0.40846540     0.15300
H2555       H  0.59260123  0.14931692  0.31159734     0.15020
N2556       N  0.60725575  0.08998619  0.32085366     0.74110
O2557       O  0.60459540  0.19388160  0.42374106    -0.39340
O2558       O  0.63022063  0.24127003  0.39309008    -0.39280
O2559       O  0.59338297  0.05351571  0.32729398    -0.39990
O2560       O  0.61568337  0.10015984  0.29610759    -0.40050
C2561       C  0.79866049  0.02434271  0.04086417    -0.12330
C2562       C  0.76938119  0.01242181  0.02020246     0.04670
C2563       C  0.75245877  0.47390703  0.00797774    -0.07620
C2564       C  0.76584427  0.44800725  0.01651471    -0.08370
C2565       C  0.79582922  0.46020800  0.03669514    -0.02920
C2566       C  0.81230990  0.49848740  0.04942965     0.03900
N2567       N  0.84221738  0.51121671  0.07108220     0.66410
H2568       H  0.81167219  0.05427958  0.04970579     0.15300
H2569       H  0.75253563  0.41806489  0.00761817     0.15020
N2570       N  0.72152219  0.46059872  0.98718082     0.74110
O2571       O  0.84436231  0.03589770  0.08906246    -0.39340
O2572       O  0.86852633  0.50042482  0.07125025    -0.39280
O2573       O  0.72930077  0.97824448  0.96434663    -0.39990
O2574       O  0.68919453  0.42712542  0.98974922    -0.40050
C2575       C  0.76258680  0.25445899  0.51289659    -0.12330
C2576       C  0.79383727  0.27244944  0.53222511     0.04670
C2577       C  0.81164996  0.25111792  0.54366013    -0.07620
C2578       C  0.79763866  0.21170102  0.53495864    -0.08370
C2579       C  0.76655872  0.19372747  0.51548050    -0.02920
C2580       C  0.74831754  0.21490939  0.50417061     0.03900
N2581       N  0.71510152  0.19700339  0.48462479     0.66410
H2582       H  0.74869962  0.27119735  0.50513115     0.15300
H2583       H  0.81152881  0.19508700  0.54296717     0.15020
N2584       N  0.84304962  0.26857540  0.56436973     0.74110
O2585       O  0.69154078  0.21102030  0.48204448    -0.39340
O2586       O  0.71019281  0.16886969  0.46879166    -0.39280
O2587       O  0.84679289  0.24625543  0.58174626    -0.39990
O2588       O  0.86900236  0.30575864  0.56422259    -0.40050
C2589       C  0.94031077  0.32067946  0.66707038    -0.12330
C2590       C  0.93968272  0.34777158  0.68627398     0.04670
C2591       C  0.94629444  0.34416435  0.71424138    -0.07620
C2592       C  0.95376134  0.31361137  0.72219091    -0.08370
C2593       C  0.95466342  0.28674454  0.70292732    -0.02920
C2594       C  0.94787119  0.29024496  0.67499934     0.03900
N2595       N  0.94764130  0.26298956  0.65463364     0.66410
H2596       H  0.93373697  0.32257116  0.64566707     0.15300
H2597       H  0.96020884  0.31153455  0.74359306     0.15020
N2598       N  0.94653898  0.37144036  0.73459535     0.74110
O2599       O  0.93150420  0.22576689  0.65957051    -0.39340
O2600       O  0.46029836  0.27549590  0.63077553    -0.39280
O2601       O  0.93423297  0.35904428  0.75852818    -0.39990
O2602       O  0.96238577  0.40860952  0.72956861    -0.40050
C2603       C  0.59826315  0.42597209  0.83951218    -0.12330
C2604       C  0.62009364  0.43897739  0.86405191     0.04670
C2605       C  0.62821412  0.41276903  0.87975380    -0.07620
C2606       C  0.61303797  0.37333523  0.87072862    -0.08370
C2607       C  0.59123751  0.36027838  0.84621926    -0.02920
C2608       C  0.58335065  0.38649385  0.83032736     0.03900
N2609       N  0.56006870  0.37339808  0.80523158     0.66410
H2610       H  0.59147030  0.44616394  0.82814455     0.15300
H2611       H  0.61984857  0.35320848  0.88217841     0.15020
N2612       N  0.65194488  0.42586107  0.90465216     0.74110
O2613       O  0.56604275  0.39852141  0.78655571    -0.39340
O2614       O  0.53113714  0.33758563  0.80253756    -0.39280
O2615       O  0.64484323  0.40118132  0.92385419    -0.39990
O2616       O  0.68235862  0.46096772  0.90658964    -0.40050
C2617       C  0.71477426  0.10622465  0.17508046    -0.12330
C2618       C  0.67425707  0.08127651  0.18293025     0.04670
C2619       C  0.66196058  0.04451221  0.19665339    -0.07620
C2620       C  0.69130406  0.03368421  0.20175771    -0.08370
C2621       C  0.73176234  0.05859252  0.19390400    -0.02920
C2622       C  0.74402923  0.09532721  0.18038797     0.03900
N2623       N  0.78545161  0.12143404  0.17193253     0.66410
H2624       H  0.72316359  0.13369198  0.16386037     0.15300
H2625       H  0.68309463  0.00623460  0.21294310     0.15020
N2626       N  0.62090135  0.01858593  0.20619580     0.74110
O2627       O  0.79802398  0.15802550  0.16651848    -0.39340
O2628       O  0.80869691  0.10748335  0.16762061    -0.39280
O2629       O  0.59181236  0.02292727  0.19810436    -0.39990
O2630       O  0.61356691  0.99120790  0.22340369    -0.40050
C2631       C  0.60327403  0.39214233  0.38802533    -0.12330
C2632       C  0.57530219  0.39180590  0.36887224     0.04670
C2633       C  0.58593648  0.40024532  0.34116546    -0.07620
C2634       C  0.62442292  0.40855587  0.33331212    -0.08370
C2635       C  0.65221889  0.40833377  0.35237652    -0.02920
C2636       C  0.64174596  0.40034831  0.38015567     0.03900
N2637       N  0.66889167  0.39928433  0.40034855     0.66410
H2638       H  0.59452347  0.38462304  0.40923974     0.15300
H2639       H  0.63315056  0.41608085  0.31209630     0.15020
N2640       N  0.55874107  0.40128082  0.32099571     0.74110
O2641       O  0.66833053  0.41004006  0.42471128    -0.39340
O2642       O  0.69061913  0.38403783  0.39468709    -0.39280
O2643       O  0.53637821  0.41573714  0.32685860    -0.39990
O2644       O  0.55969701  0.39113867  0.29652738    -0.40050
C2645       C  0.75243776  0.23472478  0.01148017    -0.12330
C2646       C  0.74117671  0.21695567  0.03721769     0.04670
C2647       C  0.76905644  0.21241826  0.05400568    -0.07620
C2648       C  0.80831378  0.22660913  0.04450224    -0.08370
C2649       C  0.81948920  0.24417424  0.01867959    -0.02920
C2650       C  0.79167381  0.24901368  0.00202682     0.03900
N2651       N  0.80291975  0.26858147  0.97576317     0.66410
H2652       H  0.73101904  0.23892212  0.99923387     0.15300
H2653       H  0.82971204  0.22232479  0.05670119     0.15020
N2654       N  0.75778909  0.19297610  0.08031631     0.74110
O2655       O  0.77692431  0.25767887  0.95669263    -0.39340
O2656       O  0.83762789  0.29910003  0.97227402    -0.39280
O2657       O  0.72292385  0.16274793  0.08393258    -0.39990
O2658       O  0.78390985  0.20358988  0.09928394    -0.40050
C2659       C  0.99409646  0.21750523  0.53304264    -0.12330
C2660       C  0.50909247  0.25055980  0.51550329     0.04670
C2661       C  0.54870490  0.26790658  0.50469489    -0.07620
C2662       C  0.57267438  0.25138079  0.51214161    -0.08370
C2663       C  0.55772426  0.21846745  0.52983539    -0.02920
C2664       C  0.51794093  0.20087412  0.54034704     0.03900
N2665       N  0.50173647  0.16684801  0.55866158     0.66410
H2666       H  0.96306259  0.20370965  0.54017133     0.15300
H2667       H  0.60377976  0.26527360  0.50515707     0.15020
N2668       N  0.56480349  0.30179440  0.48624551     0.74110
O2669       O  0.97401785  0.16098705  0.57525082    -0.39340
O2670       O  0.51227355  0.14057083  0.55672542    -0.39280
O2671       O  0.55334276  0.32742922  0.48749661    -0.39990
O2672       O  0.59311768  0.30808198  0.47008040    -0.40050
C2673       C  0.82439414  0.37913899  0.86574234    -0.12330
C2674       C  0.84004685  0.41431848  0.85020150     0.04670
C2675       C  0.88068690  0.43401190  0.84103436    -0.07620
C2676       C  0.90490017  0.41765284  0.84817817    -0.08370
C2677       C  0.88930828  0.38263746  0.86388001    -0.02920
C2678       C  0.84855035  0.36270049  0.87276823     0.03900
N2679       N  0.83156905  0.32657707  0.88918481     0.66410
H2680       H  0.79267330  0.36368622  0.87150987     0.15300
H2681       H  0.93665343  0.43314879  0.84249419     0.15020
N2682       N  0.89759743  0.46988637  0.82435685     0.74110
O2683       O  0.80065070  0.31675070  0.90366885    -0.39340
O2684       O  0.84493731  0.30249743  0.88754758    -0.39280
O2685       O  0.88379076  0.49364497  0.82536526    -0.39990
O2686       O  0.92865338  0.47966252  0.81003305    -0.40050
C2687       C  0.93407044  0.05977254  0.72011884    -0.12330
C2688       C  0.90634777  0.05986116  0.70096219     0.04670
C2689       C  0.91684492  0.06789850  0.67320719    -0.07620
C2690       C  0.95507561  0.07542265  0.66532232    -0.08370
C2691       C  0.98258630  0.07475940  0.68443269    -0.02920
C2692       C  0.97215626  0.06705998  0.71221817     0.03900
N2693       N  0.99891602  0.06521285  0.73237152     0.66410
H2694       H  0.92530483  0.05236661  0.74134292     0.15300
H2695       H  0.96385187  0.08267891  0.64409072     0.15020
N2696       N  0.88973057  0.06915463  0.65304739     0.74110
O2697       O  0.99871786  0.07612236  0.75674604    -0.39340
O2698       O  0.51976674  0.04901441  0.72667965    -0.39280
O2699       O  0.86678154  0.08284897  0.65912449    -0.39990
O2700       O  0.89111189  0.05975214  0.62845268    -0.40050
C2701       C  0.79493805  0.99656614  0.71518241     0.03060
C2702       C  0.83163327  0.51468126  0.70062433    -0.13090
C2703       C  0.86600347  0.54861787  0.71096979     0.00560
C2704       C  0.86384315  0.56672073  0.73484741    -0.11610
C2705       C  0.82939450  0.54850094  0.75092750     0.03050
C2706       C  0.79403345  0.51371559  0.74086737    -0.11030
H2707       H  0.83491246  0.00049431  0.68239561     0.08650
H2708       H  0.89090246  0.59367245  0.74206878     0.06180
H2709       H  0.76712966  0.49915332  0.75342738     0.06030
C2710       C  0.59501926  0.63057359  0.67116395     0.03060
C2711       C  0.55795943  0.61546423  0.68508963    -0.13090
C2712       C  0.52222029  0.58360988  0.67429896     0.00560
C2713       C  0.52304533  0.56445887  0.65055635    -0.11610
C2714       C  0.55813705  0.57962879  0.63520372     0.03050
C2715       C  0.59482952  0.61251805  0.64567371    -0.11030
H2716       H  0.55576065  0.63066149  0.70313901     0.08650
H2717       H  0.49493859  0.53895711  0.64308213     0.06180
H2718       H  0.62218629  0.62507164  0.63354802     0.06030
C2719       C  0.78074618  0.96653881  0.83620481     0.03060
C2720       C  0.80298300  0.95200519  0.85046947    -0.13090
C2721       C  0.81099089  0.92397842  0.83840010     0.00560
C2722       C  0.79428670  0.90682309  0.81337317    -0.11610
C2723       C  0.77021138  0.91824499  0.79894615     0.03050
C2724       C  0.76357764  0.94881458  0.81022521    -0.11030
H2725       H  0.81779307  0.96515711  0.86984050     0.08650
H2726       H  0.80068151  0.88433438  0.80513259     0.06180
H2727       H  0.74667429  0.95957907  0.79858096     0.06030
C2728       C  0.94825091  0.83091570  0.88037802     0.03060
C2729       C  0.92749428  0.84609152  0.86501493    -0.13090
C2730       C  0.91835907  0.87369103  0.87653524     0.00560
C2731       C  0.93306229  0.89032876  0.90204986    -0.11610
C2732       C  0.95604243  0.87866933  0.91746961     0.03050
C2733       C  0.96333833  0.84812997  0.90682306    -0.11030
H2734       H  0.91419240  0.83340496  0.84521285     0.08650
H2735       H  0.92589869  0.91247543  0.90991018     0.06180
H2736       H  0.97901757  0.83687359  0.91934555     0.06030
C2737       C  0.94880146  0.80199274  0.50255692     0.03060
C2738       C  0.97186183  0.78798734  0.51631938    -0.13090
C2739       C  0.97993518  0.76023644  0.50393073     0.00560
C2740       C  0.96273356  0.74299703  0.47902478    -0.11610
C2741       C  0.93799111  0.75403751  0.46503406     0.03050
C2742       C  0.93113328  0.78423228  0.47668012    -0.11030
H2743       H  0.48704831  0.80122939  0.53557812     0.08650
H2744       H  0.96919682  0.72067000  0.47057174     0.06180
H2745       H  0.91370856  0.79472553  0.46537438     0.06030
C2746       C  0.61564176  0.66585750  0.54677696     0.03060
C2747       C  0.59543554  0.68143842  0.53119384    -0.13090
C2748       C  0.58680851  0.70955122  0.54249875     0.00560
C2749       C  0.60118232  0.72592347  0.56814018    -0.11610
C2750       C  0.62304841  0.71331759  0.58390296     0.03050
C2751       C  0.63016053  0.68266027  0.57334898    -0.11030
H2752       H  0.58224759  0.66877661  0.51136439     0.08650
H2753       H  0.59435444  0.74834351  0.57593053     0.06180
H2754       H  0.64519880  0.67092305  0.58607626     0.06030
C2755       C  0.93132979  0.79751908  0.00461829     0.03060
C2756       C  0.93015577  0.77954557  0.97876055    -0.13090
C2757       C  0.89277565  0.74726165  0.96824722     0.00560
C2758       C  0.85784047  0.73352984  0.98357974    -0.11610
C2759       C  0.85832416  0.75246830  0.00772484     0.03050
C2760       C  0.89465751  0.78244449  0.01904061    -0.11030
H2761       H  0.95733061  0.79162161  0.96648142     0.08650
H2762       H  0.82900493  0.70920799  0.97600747     0.06180
H2763       H  0.89312520  0.79667799  0.03781087     0.06030
C2764       C  0.62878514  0.66300819  0.04924619     0.03060
C2765       C  0.66618322  0.67767630  0.03588000    -0.13090
C2766       C  0.70185754  0.70781152  0.04768611     0.00560
C2767       C  0.70108609  0.72700146  0.07133838    -0.11610
C2768       C  0.66523421  0.71380072  0.08562761     0.03050
C2769       C  0.62841894  0.68145217  0.07457813    -0.11030
H2770       H  0.66867631  0.66328681  0.01748146     0.08650
H2771       H  0.72958355  0.75149061  0.07920987     0.06180
H2772       H  0.60051310  0.66982025  0.08600366     0.06030
C2773       C  0.96273014  0.83138969  0.38177505     0.03060
C2774       C  0.96178344  0.84886898  0.40733704    -0.13090
C2775       C  0.99768217  0.88260577  0.41797341     0.00560
C2776       C  0.53289873  0.89929632  0.40262573    -0.11610
C2777       C  0.53495992  0.88091674  0.37886878     0.03050
C2778       C  0.00007367  0.84805984  0.36798555    -0.11030
H2779       H  0.93429800  0.83533729  0.41934989     0.08650
H2780       H  0.56033162  0.92558001  0.41014152     0.06180
H2781       H  0.50322685  0.83357450  0.34987609     0.06030
C2782       C  0.76462926  0.96509183  0.33826775     0.03060
C2783       C  0.72778146  0.94956302  0.35259533    -0.13090
C2784       C  0.69191911  0.91747733  0.34203595     0.00560
C2785       C  0.69247181  0.89842466  0.31814366    -0.11610
C2786       C  0.72711328  0.91399282  0.30232922     0.03050
C2787       C  0.76393841  0.94714632  0.31256817    -0.11030
H2788       H  0.72577489  0.96461865  0.37078435     0.08650
H2789       H  0.66436487  0.87272460  0.31086399     0.06180
H2790       H  0.79098732  0.95998596  0.30011692     0.06030
C2791       C  0.61702513  0.63573498  0.16899180     0.03060
C2792       C  0.63964166  0.62132391  0.18292612    -0.13090
C2793       C  0.64498141  0.59110768  0.17161217     0.00560
C2794       C  0.62701020  0.57333663  0.14694545    -0.11610
C2795       C  0.60385605  0.58578462  0.13234940     0.03050
C2796       C  0.59862790  0.61736041  0.14338540    -0.11030
H2797       H  0.65586748  0.63537550  0.20174217     0.08650
H2798       H  0.63199406  0.54977377  0.13897067     0.06180
H2799       H  0.58194926  0.62842420  0.13178273     0.06030
C2800       C  0.78404464  0.00132956  0.21277637     0.03060
C2801       C  0.76615302  0.51855486  0.19642092    -0.13090
C2802       C  0.76106098  0.54971439  0.20641715     0.00560
C2803       C  0.77547220  0.56615490  0.23207810    -0.11610
C2804       C  0.79343650  0.55053927  0.24908413     0.03050
C2805       C  0.79818634  0.51801698  0.23939359    -0.11030
H2806       H  0.75245790  0.00550378  0.17677340     0.08650
H2807       H  0.77067986  0.59021876  0.23925734     0.06180
H2808       H  0.81085476  0.50468815  0.25288043     0.06030
C2809       C  0.54202896  0.74825987  0.83525044     0.03060
C2810       C  0.56090959  0.74798339  0.81014023    -0.13090
C2811       C  0.59148663  0.78497900  0.79848053     0.00560
C2812       C  0.60186219  0.82101252  0.81173003    -0.11610
C2813       C  0.58270647  0.82142605  0.83547883     0.03050
C2814       C  0.55461020  0.78571396  0.84791829    -0.11030
H2815       H  0.55106055  0.71979899  0.79943479     0.08650
H2816       H  0.62474776  0.84969407  0.80337828     0.06180
H2817       H  0.54010000  0.78787553  0.86634331     0.06030
C2818       C  0.67595295  0.54986045  0.87971360     0.03060
C2819       C  0.65923604  0.51373146  0.86443032    -0.13090
C2820       C  0.62896284  0.97765251  0.87541851     0.00560
C2821       C  0.61148829  0.97703378  0.90022445    -0.11610
C2822       C  0.62677080  0.51148239  0.91625110     0.03050
C2823       C  0.65919047  0.54850072  0.90599053    -0.11030
H2824       H  0.67252429  0.51229040  0.84521870     0.08650
H2825       H  0.58719567  0.94842684  0.90773138     0.06180
H2826       H  0.67241171  0.57522544  0.91880555     0.06030
C2827       C  0.88094796  0.90070089  0.67158243     0.03060
C2828       C  0.89735146  0.88041918  0.68614208    -0.13090
C2829       C  0.93011845  0.87789284  0.67591773     0.00560
C2830       C  0.94895831  0.89776480  0.65207797    -0.11610
C2831       C  0.93223202  0.91530704  0.63579939     0.03050
C2832       C  0.89845950  0.91783858  0.64576502    -0.11030
H2833       H  0.88245070  0.86316064  0.70426800     0.08650
H2834       H  0.97522968  0.89641514  0.64507511     0.06180
H2835       H  0.88485602  0.93106372  0.63304463     0.06030
C2836       C  0.51291520  0.73283195  0.71593272     0.03060
C2837       C  0.49479249  0.71381362  0.74119816    -0.13090
C2838       C  0.96125268  0.71625856  0.75163696     0.00560
C2839       C  0.94551060  0.73579331  0.73637331    -0.11610
C2840       C  0.96468290  0.75685511  0.71299743     0.03050
C2841       C  0.49734801  0.75461521  0.70239724    -0.11030
H2842       H  0.50762716  0.69906046  0.75310008     0.08650
H2843       H  0.91934217  0.73710866  0.74364847     0.06180
H2844       H  0.51256120  0.77282823  0.68466612     0.06030
C2845       C  0.71132779  0.58230302  0.50246441     0.03060
C2846       C  0.72944736  0.58207585  0.47696079    -0.13090
C2847       C  0.76203203  0.61868502  0.46621035     0.00560
C2848       C  0.77610002  0.65411680  0.48112703    -0.11610
C2849       C  0.75720245  0.65469691  0.50494087     0.03050
C2850       C  0.72644272  0.61940980  0.51622667    -0.11030
H2851       H  0.71738220  0.55443751  0.46519201     0.08650
H2852       H  0.80058545  0.68246821  0.47344100     0.06180
H2853       H  0.71222197  0.62197407  0.53467084     0.06030
C2854       C  0.84461053  0.88312331  0.54736773     0.03060
C2855       C  0.82730603  0.88130845  0.57358067    -0.13090
C2856       C  0.79663016  0.84351530  0.58440870     0.00560
C2857       C  0.78476863  0.80866031  0.56934219    -0.11610
C2858       C  0.80182094  0.81029348  0.54420265     0.03050
C2859       C  0.82969181  0.84686149  0.53255239    -0.11030
H2860       H  0.83861174  0.90847046  0.58580331     0.08650
H2861       H  0.76250469  0.77940575  0.57731707     0.06180
H2862       H  0.84273747  0.84595923  0.51309824     0.06030
C2863       C  0.71417234  0.56818074  0.00512989     0.03060
C2864       C  0.72992318  0.54751751  0.01994901    -0.13090
C2865       C  0.76041395  0.54206961  0.00901964     0.00560
C2866       C  0.77859042  0.55967823  0.98459214    -0.11610
C2867       C  0.76372772  0.57940952  0.96874130     0.03050
C2868       C  0.73142242  0.58421229  0.97906202    -0.11030
H2869       H  0.71615421  0.53213419  0.03888947     0.08650
H2870       H  0.80288277  0.55530864  0.97711664     0.06180
H2871       H  0.71870922  0.59842589  0.96646300     0.06030
C2872       C  0.84769743  0.90053762  0.04888178     0.03060
C2873       C  0.83299706  0.92297658  0.03524001    -0.13090
C2874       C  0.80444253  0.93012476  0.04746944     0.00560
C2875       C  0.78694819  0.91247638  0.07201200    -0.11610
C2876       C  0.79910786  0.88880710  0.08605190     0.03050
C2877       C  0.83006156  0.88282106  0.07457924    -0.11030
H2878       H  0.84645117  0.93859610  0.01630243     0.08650
H2879       H  0.76410026  0.91834706  0.08038684     0.06180
H2880       H  0.84131245  0.86617105  0.08594016     0.06030
C2881       C  0.68029837  0.56666249  0.38198298     0.03060
C2882       C  0.66328568  0.58676509  0.36792459    -0.13090
C2883       C  0.63032404  0.58843205  0.37859619     0.00560
C2884       C  0.61211005  0.56823296  0.40241301    -0.11610
C2885       C  0.62904291  0.55021896  0.41805373     0.03050
C2886       C  0.66297567  0.54842807  0.40763686    -0.11030
H2887       H  0.67756697  0.60421453  0.34973122     0.08650
H2888       H  0.58576381  0.56920056  0.40972439     0.06180
H2889       H  0.67670046  0.53480533  0.41982204     0.06030
C2890       C  0.54794082  0.73454220  0.33760860     0.03060
C2891       C  0.56260434  0.71233256  0.35172033    -0.13090
C2892       C  0.59395155  0.70780226  0.34107129     0.00560
C2893       C  0.61314247  0.72730804  0.31725599    -0.11610
C2894       C  0.59857778  0.74753849  0.30169838     0.03050
C2895       C  0.56604386  0.75193343  0.31200666    -0.11030
H2896       H  0.54744727  0.69531054  0.36987435     0.08650
H2897       H  0.63831704  0.72425371  0.30996896     0.06180
H2898       H  0.55386307  0.76696774  0.29974177     0.06030
C2899       C  0.51229544  0.71661122  0.21379481     0.03060
C2900       C  0.49765774  0.68009850  0.19930407    -0.13090
C2901       C  0.96583518  0.64417130  0.20932265     0.00560
C2902       C  0.94716750  0.64361275  0.23363819    -0.11610
C2903       C  0.96150980  0.67819981  0.24951770     0.03050
C2904       C  0.99398795  0.71538304  0.23941899    -0.11030
H2905       H  0.51294002  0.67847454  0.18112594     0.08650
H2906       H  0.92260924  0.61500852  0.24092651     0.06180
H2907       H  0.50601666  0.74239652  0.25187998     0.06030
C2908       C  0.87954500  0.91590120  0.16994842     0.03060
C2909       C  0.89620013  0.95279499  0.18426487    -0.13090
C2910       C  0.92759280  0.98791789  0.17311647     0.00560
C2911       C  0.94505906  0.98694444  0.14868283    -0.11610
C2912       C  0.92963417  0.95160234  0.13348197     0.03050
C2913       C  0.89677765  0.91541312  0.14420316    -0.11030
H2914       H  0.88257519  0.95546312  0.20297323     0.08650
H2915       H  0.96985416  0.51500807  0.14088378     0.06180
H2916       H  0.88366205  0.88796535  0.13213829     0.06030
C2917       C  0.77871707  0.74801334  0.33752257     0.03060
C2918       C  0.80100188  0.78426238  0.35233152    -0.13090
C2919       C  0.81057576  0.82089581  0.34050017     0.00560
C2920       C  0.79525611  0.82259437  0.31517654    -0.11610
C2921       C  0.77105268  0.78769569  0.30029269     0.03050
C2922       C  0.76305010  0.74986729  0.31127606    -0.11030
H2923       H  0.81481316  0.78500597  0.37195255     0.08650
H2924       H  0.80279368  0.85188431  0.30708944     0.06180
H2925       H  0.74630543  0.72264397  0.29915729     0.06030
C2926       C  0.94574147  0.55051344  0.38186069     0.03060
C2927       C  0.92517661  0.51405606  0.36710147    -0.13090
C2928       C  0.91797884  0.97817291  0.37891193     0.00560
C2929       C  0.93413452  0.97770366  0.40415507    -0.11610
C2930       C  0.95659141  0.51298959  0.41912079     0.03050
C2931       C  0.96236360  0.54998691  0.40808052    -0.11030
H2932       H  0.91072428  0.51231579  0.34756280     0.08650
H2933       H  0.92833792  0.94893853  0.41223723     0.06180
H2934       H  0.97795429  0.57739270  0.42013862     0.06030
C2935       C  0.78072598  0.71574800  0.71418926     0.03060
C2936       C  0.76351529  0.68016961  0.69832920    -0.13090
C2937       C  0.75477723  0.64368661  0.71023881     0.00560
C2938       C  0.76903594  0.64271531  0.73614866    -0.11610
C2939       C  0.78999198  0.67763423  0.75173552     0.03050
C2940       C  0.79545185  0.71459325  0.74094375    -0.11030
H2941       H  0.75118358  0.67919016  0.67809948     0.08650
H2942       H  0.76263424  0.61383235  0.74437685     0.06180
H2943       H  0.80905451  0.74140169  0.75367173     0.06030
C2944       C  0.60907156  0.91271515  0.67197727     0.03060
C2945       C  0.62892727  0.94851590  0.68757931    -0.13090
C2946       C  0.63984696  0.98551359  0.67557429     0.00560
C2947       C  0.62572221  0.98746629  0.64980632    -0.11610
C2948       C  0.60226453  0.95275799  0.63453181     0.03050
C2949       C  0.59454047  0.91490425  0.64535453    -0.11030
H2950       H  0.64124344  0.94887756  0.70770910     0.08650
H2951       H  0.63382043  0.51683021  0.64157731     0.06180
H2952       H  0.57912221  0.88800486  0.63277671     0.06030
C2953       C  0.92998040  0.56379598  0.50213532     0.03060
C2954       C  0.89227801  0.54065219  0.51506002    -0.13090
C2955       C  0.85689771  0.53650072  0.50354124     0.00560
C2956       C  0.85860768  0.55832435  0.48066079    -0.11610
C2957       C  0.89440998  0.57973836  0.46613302     0.03050
C2958       C  0.93084395  0.58318067  0.47700848    -0.11030
H2959       H  0.88940229  0.52271560  0.53294917     0.08650
H2960       H  0.83069041  0.55614397  0.47317565     0.06180
H2961       H  0.95879873  0.59910949  0.46559889     0.06030
C2962       C  0.62738237  0.89618379  0.54735979     0.03060
C2963       C  0.66437415  0.91844691  0.53337155    -0.13090
C2964       C  0.70047571  0.92356469  0.54442850     0.00560
C2965       C  0.70008598  0.90305738  0.56775637    -0.11610
C2966       C  0.66526054  0.88285963  0.58328460     0.03050
C2967       C  0.62818389  0.87872205  0.57297847    -0.11030
H2968       H  0.66623887  0.93534037  0.51512332     0.08650
H2969       H  0.72838011  0.90578550  0.57492766     0.06180
H2970       H  0.60097137  0.86379913  0.58523314     0.06030
C2971       C  0.79465013  0.73007846  0.21308091     0.03060
C2972       C  0.83108749  0.75106885  0.19837887    -0.13090
C2973       C  0.86752538  0.75791293  0.20977266     0.00560
C2974       C  0.86860330  0.74131706  0.23460543    -0.11610
C2975       C  0.83359343  0.71976668  0.24986797     0.03050
C2976       C  0.79605277  0.71394696  0.23913263    -0.11030
H2977       H  0.83238858  0.76596061  0.17924456     0.08650
H2978       H  0.89772363  0.74707897  0.24253622     0.06180
H2979       H  0.76889195  0.69888739  0.25142787     0.06030
C2980       C  0.59712875  0.89852786  0.17006805     0.03060
C2981       C  0.56009806  0.87726461  0.18406288    -0.13090
C2982       C  0.52443460  0.87208933  0.17245415     0.00560
C2983       C  0.52477944  0.89028904  0.14804489    -0.11610
C2984       C  0.56038707  0.91167900  0.13327076     0.03050
C2985       C  0.59719086  0.91619806  0.14432405    -0.11030
H2986       H  0.55775947  0.86119200  0.20283458     0.08650
H2987       H  0.49617871  0.88575868  0.13994872     0.06180
H2988       H  0.62482384  0.93143825  0.13251633     0.06030
C2989       C  0.94367672  0.57931297  0.00469063     0.03060
C2990       C  0.92706959  0.58055955  0.97867032    -0.13090
C2991       C  0.93387941  0.61800283  0.96776033     0.00560
C2992       C  0.95713882  0.65306329  0.98270048    -0.11610
C2993       C  0.97442347  0.65223385  0.00742904     0.03050
C2994       C  0.96634067  0.61591597  0.01912700    -0.11030
H2995       H  0.91066076  0.55323385  0.96660687     0.08650
H2996       H  0.96327217  0.68200946  0.97476696     0.06180
H2997       H  0.98146508  0.61719947  0.03828299     0.06030
C2998       C  0.61095021  0.88226696  0.04860512     0.03060
C2999       C  0.62891653  0.88252347  0.07441224    -0.13090
C3000       C  0.62384587  0.84592572  0.08558321     0.00560
C3001       C  0.60135823  0.81030714  0.07097909    -0.11610
C3002       C  0.58281029  0.80970133  0.04651948     0.03050
C3003       C  0.58878995  0.84518602  0.03466504    -0.11030
H3004       H  0.64501694  0.91024899  0.08609875     0.08650
H3005       H  0.59673619  0.78193212  0.07902342     0.06180
H3006       H  0.57270402  0.84283770  0.01574830     0.06030
C3007       C  0.76270939  0.73010602  0.83683774     0.03060
C3008       C  0.76239087  0.74707289  0.81088222    -0.13090
C3009       C  0.72518834  0.74104362  0.79942789     0.00560
C3010       C  0.68936479  0.71766622  0.81367715    -0.11610
C3011       C  0.68965404  0.70118025  0.83871713     0.03050
C3012       C  0.72583402  0.70898754  0.85103041    -0.11030
H3013       H  0.79015919  0.76310443  0.79928965     0.08650
H3014       H  0.66037316  0.71144348  0.80520589     0.06180
H3015       H  0.72405000  0.69442587  0.87040271     0.06030
C3016       C  0.95910250  0.56086251  0.88007324     0.03060
C3017       C  0.99524975  0.58156680  0.86502797    -0.13090
C3018       C  0.53228498  0.59117394  0.87691545     0.00560
C3019       C  0.53423923  0.57662028  0.90240671    -0.11610
C3020       C  0.99925124  0.55339874  0.91741240     0.03050
C3021       C  0.96119335  0.54588639  0.90643109    -0.11030
H3022       H  0.99579559  0.59469109  0.84527510     0.08650
H3023       H  0.56377111  0.58411821  0.91058989     0.06180
H3024       H  0.93405412  0.53023433  0.91869391     0.06030
O3025       O  0.86901219  0.58456113  0.78981766    -0.86560
O3026       O  0.73834297  0.61240648  0.88795840    -0.86720
O3027       O  0.77710100  0.52680816  0.82953708    -0.88390
O3028       O  0.78805054  0.63789134  0.79016293    -0.87150
O3029       O  0.83813344  0.70450611  0.78772752    -0.86740
O3030       O  0.80221995  0.51802213  0.87011599    -0.88110
O3031       O  0.72954360  0.57874333  0.84738672    -0.86590
O3032       O  0.80187127  0.56724585  0.78725724    -0.86170
Zr3033     Zr  0.79627685  0.59844821  0.82797257     2.84310
O3034       O  0.81272115  0.66192678  0.84371046    -1.08150
O3035       O  0.84607176  0.58400121  0.84377797    -1.08880
C3036       C  0.83318821  0.56703602  0.77808531     1.06550
C3037       C  0.71640882  0.58381791  0.87067990     1.06490
C3038       C  0.78508186  0.50550641  0.84626765     1.09480
C3039       C  0.80590739  0.67345733  0.77862928     1.07260
H3040       H  0.77356491  0.57460132  0.88318866     0.32810
O3041       O  0.79791770  0.59703280  0.87598148    -1.29100
H3042       H  0.86050231  0.64689287  0.79276032     0.32490
O3043       O  0.86077937  0.64689618  0.81252380    -1.30780
O3044       O  0.85180947  0.70790740  0.93017240    -0.86550
O3045       O  0.98189173  0.68349711  0.82928513    -0.88050
O3046       O  0.80182136  0.57704231  0.93053057    -0.86630
O3047       O  0.82619324  0.73235141  0.83008789    -0.86680
O3048       O  0.92399677  0.71797009  0.79015805    -0.86390
O3049       O  0.89602665  0.55920266  0.88811780    -0.86190
O3050       O  0.93434059  0.65826015  0.92995272    -0.86560
O3051       O  0.95034357  0.76995685  0.88843545    -0.86030
O3052       O  0.88618490  0.59091714  0.93175926    -0.87090
O3053       O  0.92541763  0.77788070  0.84748713    -0.86250
O3054       O  0.78173386  0.62438397  0.93194758    -0.86650
O3055       O  0.92877993  0.58382543  0.84734525    -0.86370
O3056       O  0.94097848  0.66844439  0.78731119    -0.86020
O3057       O  0.79144366  0.70615831  0.87000223    -0.86430
O3058       O  0.91965947  0.72785781  0.93196033    -0.86720
O3059       O  0.99154470  0.71799020  0.86959027    -0.88060
Zr3060     Zr  0.81198677  0.66124522  0.89145447     2.83100
Zr3061     Zr  0.90962760  0.63121644  0.82792218     2.83500
Zr3062     Zr  0.84751972  0.58377007  0.89155038     2.84090
Zr3063     Zr  0.87717276  0.71119509  0.82802067     2.83360
Zr3064     Zr  0.92603306  0.69700226  0.89150478     2.84220
O3065       O  0.92483816  0.69533435  0.84376611    -1.08630
O3066       O  0.86205571  0.64749144  0.90669554    -1.08130
C3067       C  0.88801175  0.72693962  0.94150437     1.06520
C3068       C  0.00355351  0.71321964  0.84575263     1.09140
C3069       C  0.78306323  0.59415691  0.94175705     1.06700
C3070       C  0.79676239  0.72431562  0.84665305     1.07060
C3071       C  0.94158598  0.70016395  0.77836781     1.06640
C3072       C  0.92433183  0.56600421  0.87077266     1.06190
C3073       C  0.91741513  0.62246135  0.94121211     1.06620
C3074       C  0.94332307  0.79129630  0.87105780     1.06130
H3075       H  0.93458791  0.63241209  0.88296381     0.32810
O3076       O  0.91191176  0.63421753  0.87590990    -1.29730
H3077       H  0.87686674  0.73451551  0.88309112     0.32830
O3078       O  0.87496167  0.71021859  0.87596573    -1.31120
O3079       O  0.95586158  0.91959797  0.95488148    -0.86560
O3080       O  0.61411891  0.94584373  0.05523659    -0.86720
O3081       O  0.58873514  0.97094907  0.95444231    -0.88390
O3082       O  0.99432098  0.85906220  0.99668678    -0.87150
O3083       O  0.96120054  0.85096453  0.03730600    -0.86740
O3084       O  0.60914202  0.53845278  0.95325838    -0.88110
O3085       O  0.58787435  0.91124319  0.01500168    -0.86590
O3086       O  0.00369472  0.89989787  0.95349570    -0.86170
Zr3087     Zr  0.54296069  0.93208306  0.99338674     2.84310
O3088       O  0.54423317  0.93352595  0.04116343    -1.08150
O3089       O  0.52894265  0.98164570  0.97816726    -1.08880
C3090       C  0.97249087  0.90017321  0.94392088     1.06550
C3091       C  0.60577158  0.91637073  0.03861293     1.06490
C3092       C  0.60762923  0.00686641  0.94332212     1.09480
C3093       C  0.96585236  0.83758535  0.01392784     1.07260
H3094       H  0.61687266  0.99651676  0.00191227     0.32810
O3095       O  0.59258720  0.99475472  0.00912845    -1.29100
H3096       H  0.95602730  0.89410973  0.00189570     0.32490
O3097       O  0.97873135  0.91852284  0.00898143    -1.30780
O3098       O  0.60328291  0.54606891  0.09442107    -0.86550
O3099       O  0.94074271  0.51597187  0.99677392    -0.88050
O3100       O  0.65246472  0.56962794  0.99716250    -0.86630
O3101       O  0.02089980  0.91003522  0.09466988    -0.86680
O3102       O  0.90844138  0.89708875  0.05520464    -0.86390
O3103       O  0.54032705  0.55420999  0.95527540    -0.86190
O3104       O  0.56477812  0.60215365  0.05554576    -0.86560
O3105       O  0.96677138  0.49050062  0.09496637    -0.86030
O3106       O  0.60011033  0.61051799  0.01592920    -0.87090
O3107       O  0.94955501  0.92395134  0.09761016    -0.86250
O3108       O  0.66095290  0.54447411  0.03769951    -0.86650
O3109       O  0.97260618  0.50606161  0.95317839    -0.86370
O3110       O  0.89944544  0.92313947  0.01524261    -0.86020
O3111       O  0.58784869  0.95993083  0.09778878    -0.86430
O3112       O  0.55336633  0.56272888  0.09747470    -0.86720
O3113       O  0.96579073  0.54879371  0.03775796    -0.88060
Zr3114     Zr  0.59414419  0.99755465  0.05715062     2.83100
Zr3115     Zr  0.96498618  0.96735822  0.99327267     2.83500
Zr3116     Zr  0.57902270  0.54531275  0.99378151     2.84090
Zr3117     Zr  0.98072614  0.91752392  0.05696433     2.83360
Zr3118     Zr  0.51378799  0.53005749  0.05724329     2.84220
O3119       O  0.96598209  0.96674483  0.04109820    -1.08630
O3120       O  0.57810317  0.54489964  0.04151425    -1.08130
C3121       C  0.58597606  0.56419899  0.10610967     1.06520
C3122       C  0.94801070  0.54440657  0.01415688     1.09140
C3123       C  0.67415282  0.56256101  0.01437270     1.06700
C3124       C  0.55659061  0.92792563  0.10656588     1.07060
C3125       C  0.88694449  0.90537186  0.03874375     1.06640
C3126       C  0.50417884  0.53723963  0.94392299     1.06190
C3127       C  0.59459789  0.62337336  0.03922971     1.06620
C3128       C  0.94907326  0.95510661  0.10665715     1.06130
H3129       H  0.51432447  0.55386526  0.00220924     0.32810
O3130       O  0.51608322  0.53135996  0.00925319    -1.29730
H3131       H  0.53005400  0.98196200  0.09249235     0.32830
O3132       O  0.52974530  0.98178566  0.07272460    -1.31120
O3133       O  0.93731444  0.71425814  0.42713919    -0.86560
O3134       O  0.77530562  0.68450751  0.32956695    -0.86720
O3135       O  0.89923639  0.77000145  0.38809930    -0.88390
O3136       O  0.80047720  0.65804841  0.42797370    -0.87150
O3137       O  0.78300802  0.59144793  0.43065582    -0.86740
O3138       O  0.93528563  0.77823687  0.34883636    -0.88110
O3139       O  0.79998701  0.71691496  0.37070292    -0.86590
O3140       O  0.88723949  0.73066189  0.43039234    -0.86170
Zr3141     Zr  0.84782828  0.69799348  0.39019899     2.84310
O3142       O  0.79979328  0.63478227  0.37416806    -1.08150
O3143       O  0.91210798  0.71266120  0.37439433    -1.08880
C3144       C  0.91998230  0.73231498  0.43888815     1.06550
C3145       C  0.78254123  0.71284265  0.34700815     1.06490
C3146       C  0.92930180  0.79120766  0.37192572     1.09480
C3147       C  0.78242289  0.62255773  0.43963931     1.07260
H3148       H  0.84872507  0.72191213  0.33509518     0.32810
O3149       O  0.85030581  0.69932260  0.34217368    -1.29100
H3150       H  0.86403901  0.65003253  0.42551208     0.32490
O3151       O  0.86375081  0.64978054  0.40574406    -1.30780
O3152       O  0.79068985  0.58900455  0.28721511    -0.86550
O3153       O  0.94845055  0.61394721  0.38857344    -0.88050
O3154       O  0.87429994  0.72101486  0.28799045    -0.86630
O3155       O  0.74218246  0.56522323  0.38840165    -0.86680
O3156       O  0.85516860  0.57860129  0.42763417    -0.86390
O3157       O  0.98655321  0.73664520  0.32976740    -0.86190
O3158       O  0.92259493  0.63780392  0.28760823    -0.86560
O3159       O  0.82752848  0.52666066  0.33021289    -0.86030
O3160       O  0.94297642  0.70528408  0.28609316    -0.87090
O3161       O  0.79422253  0.51881882  0.37070717    -0.86250
O3162       O  0.80634701  0.67348364  0.28610841    -0.86650
O3163       O  0.99507399  0.71185668  0.37045266    -0.86370
O3164       O  0.92216261  0.62834545  0.43089724    -0.86020
O3165       O  0.73320458  0.59208545  0.34883259    -0.86430
O3166       O  0.83819291  0.56877106  0.28639001    -0.86720
O3167       O  0.92153467  0.57891800  0.34858360    -0.88060
Zr3168     Zr  0.79881373  0.63534706  0.32637150     2.83100
Zr3169     Zr  0.92817005  0.66542759  0.39013574     2.83500
Zr3170     Zr  0.91319352  0.71285423  0.32665571     2.84090
Zr3171     Zr  0.81448660  0.58558710  0.39006239     2.83360
Zr3172     Zr  0.87659505  0.59957515  0.32669015     2.84220
O3173       O  0.87800621  0.60124083  0.37442931    -1.08630
O3174       O  0.86274887  0.64920758  0.31152273    -1.08130
C3175       C  0.80780294  0.57002996  0.27627224     1.06520
C3176       C  0.93998376  0.58437745  0.37202521     1.09140
C3177       C  0.83816078  0.70412086  0.27662860     1.06700
C3178       C  0.72055229  0.57358134  0.37211375     1.07060
C3179       C  0.89082769  0.59638939  0.43959114     1.06640
C3180       C  0.00819356  0.72952302  0.34698303     1.06190
C3181       C  0.94158224  0.67363149  0.27634688     1.06620
C3182       C  0.79893344  0.50532405  0.34742557     1.06130
H3183       H  0.95061778  0.66369031  0.33494409     0.32810
O3184       O  0.92646918  0.66222086  0.34216017    -1.29730
H3185       H  0.78957452  0.56196301  0.33483901     0.32830
O3186       O  0.81229853  0.58627235  0.34203818    -1.31120
O3187       O  0.73231141  0.93473126  0.72201332    -0.86560
O3188       O  0.75586386  0.80270128  0.62193021    -0.86720
O3189       O  0.81877552  0.90122460  0.66367746    -0.88390
O3190       O  0.70605003  0.88438804  0.62147991    -0.87150
O3191       O  0.63789369  0.83743274  0.61983052    -0.86740
O3192       O  0.82711499  0.87545405  0.70401226    -0.88110
O3193       O  0.77658048  0.87023073  0.62040085    -0.86590
O3194       O  0.76829709  0.94265056  0.68279875    -0.86170
Zr3195     Zr  0.74548033  0.87725839  0.66042837     2.84310
O3196       O  0.69479059  0.81383342  0.64522562    -1.08150
O3197       O  0.74461492  0.87676213  0.70816245    -1.08880
C3198       C  0.76229466  0.95580738  0.70579950     1.06550
C3199       C  0.77554905  0.83866040  0.61085288     1.06490
C3200       C  0.84044045  0.89399325  0.68078609     1.09480
C3201       C  0.66983818  0.86756365  0.61013913     1.07260
H3202       H  0.78256645  0.82792310  0.66892746     0.32810
O3203       O  0.75839660  0.82645565  0.67609580    -1.29100
H3204       H  0.68124746  0.88717359  0.66868209     0.32490
O3205       O  0.68282883  0.86461275  0.67583416    -1.30780
O3206       O  0.65831134  0.69157325  0.66351177    -0.86550
O3207       O  0.63203443  0.82380870  0.76086923    -0.88050
O3208       O  0.78139484  0.77824326  0.72154933    -0.86630
O3209       O  0.62203287  0.75319622  0.62172310    -0.86680
O3210       O  0.60740893  0.84981663  0.66375060    -0.86390
O3211       O  0.76964639  0.87808717  0.76121446    -0.86190
O3212       O  0.68567753  0.74108090  0.76130062    -0.86560
O3213       O  0.57410277  0.73018613  0.72235534    -0.86030
O3214       O  0.75285059  0.79031099  0.76443681    -0.87090
O3215       O  0.56554476  0.75728367  0.68275733    -0.86250
O3216       O  0.75271601  0.74226796  0.68213209    -0.86650
O3217       O  0.72001485  0.89521348  0.76407905    -0.86370
O3218       O  0.63382934  0.88340273  0.70427743    -0.86020
O3219       O  0.66974188  0.73328249  0.62026306    -0.86430
O3220       O  0.62463040  0.68381197  0.70385102    -0.86720
O3221       O  0.61468852  0.75737944  0.76434655    -0.88060
Zr3222     Zr  0.70849209  0.76409358  0.66045662     2.83100
Zr3223     Zr  0.68065562  0.86306926  0.72383835     2.83500
Zr3224     Zr  0.76018440  0.82913731  0.72408529     2.84090
Zr3225     Zr  0.63108442  0.80058934  0.66037865     2.83360
Zr3226     Zr  0.64628450  0.75039182  0.72400190     2.84220
O3227       O  0.63212635  0.79996909  0.70811902    -1.08630
O3228       O  0.70966718  0.76515772  0.70828785    -1.08130
C3229       C  0.62932388  0.67045307  0.68050691     1.06520
C3230       C  0.61357187  0.78852942  0.77269817     1.09140
C3231       C  0.77272089  0.74856431  0.70499883     1.06700
C3232       C  0.63881089  0.73399712  0.61062580     1.07060
C3233       C  0.61492784  0.87843236  0.68105659     1.06640
C3234       C  0.75248344  0.89648974  0.77276875     1.06190
C3235       C  0.72142345  0.75826731  0.77306661     1.06620
C3236       C  0.55277689  0.73889425  0.70604995     1.06130
H3237       H  0.69608717  0.81451539  0.75942667     0.32810
O3238       O  0.69595134  0.81438290  0.73965458    -1.29790
H3239       H  0.62149171  0.72765784  0.66877798     0.32830
O3240       O  0.64452468  0.75163676  0.67602206    -1.31120
O3241       O  0.70477229  0.75302825  0.12377863    -0.86560
O3242       O  0.57362238  0.78018858  0.22174247    -0.86720
O3243       O  0.61286355  0.69577649  0.16257740    -0.88390
O3244       O  0.62348492  0.80701624  0.12382046    -0.87150
O3245       O  0.67334173  0.87360064  0.12084808    -0.86740
O3246       O  0.63919867  0.68752996  0.20279021    -0.88110
O3247       O  0.56507335  0.74712525  0.18093072    -0.86590
O3248       O  0.63771051  0.73555456  0.12059812    -0.86170
Zr3249     Zr  0.63188095  0.76731907  0.16115813     2.84310
O3250       O  0.64766707  0.83057212  0.17697688    -1.08150
O3251       O  0.68209657  0.75362537  0.17702542    -1.08880
C3252       C  0.66902088  0.73477272  0.11195006     1.06550
C3253       C  0.55198999  0.75149436  0.20448384     1.06490
C3254       C  0.62154650  0.67477922  0.17909418     1.09480
C3255       C  0.64099749  0.84240002  0.11208406     1.07260
H3256       H  0.60948461  0.74322099  0.21636207     0.32810
O3257       O  0.63358008  0.76594140  0.20915270    -1.29100
H3258       H  0.69607309  0.81619325  0.12581974     0.32490
O3259       O  0.69622546  0.81621273  0.14558903    -1.30780
O3260       O  0.68649009  0.87577455  0.26386731    -0.86550
O3261       O  0.81789490  0.85254433  0.16322239    -0.88050
O3262       O  0.63738865  0.74613904  0.26361553    -0.86630
O3263       O  0.66059005  0.90084537  0.16333126    -0.86680
O3264       O  0.76008459  0.88873733  0.12411201    -0.86390
O3265       O  0.73186962  0.72877983  0.22121442    -0.86190
O3266       O  0.77077252  0.82835051  0.26289211    -0.86560
O3267       O  0.78480690  0.93966839  0.22140888    -0.86030
O3268       O  0.72286262  0.76091599  0.26462827    -0.87090
O3269       O  0.75899824  0.94714703  0.18072048    -0.86250
O3270       O  0.61678839  0.79308261  0.26520156    -0.86650
O3271       O  0.76488450  0.75396219  0.18059023    -0.86370
O3272       O  0.77704574  0.83930048  0.12081199    -0.86020
O3273       O  0.62573543  0.87427270  0.20316079    -0.86430
O3274       O  0.75453340  0.89645802  0.26550656    -0.86720
O3275       O  0.82671826  0.88827020  0.20282673    -0.88060
Zr3276     Zr  0.64698880  0.82992416  0.22473406     2.83100
Zr3277     Zr  0.74544292  0.80115073  0.16115747     2.83500
Zr3278     Zr  0.68343898  0.75325911  0.22473675     2.84090
Zr3279     Zr  0.71194240  0.88027192  0.16133546     2.83360
Zr3280     Zr  0.76123995  0.86675288  0.22471354     2.84220
O3281       O  0.76022941  0.86516257  0.17697568    -1.08630
O3282       O  0.69748886  0.81679048  0.23989733    -1.08130
C3283       C  0.72264137  0.89473228  0.27526731     1.06520
C3284       C  0.83943564  0.88241025  0.17962277     1.09140
C3285       C  0.61832163  0.76291500  0.27489807     1.06700
C3286       C  0.63106399  0.89255483  0.17985262     1.07060
C3287       C  0.77812827  0.87145372  0.11228751     1.06640
C3288       C  0.76022902  0.73577908  0.20389065     1.06190
C3289       C  0.75419123  0.79245651  0.27399324     1.06620
C3290       C  0.77757010  0.96088838  0.20402192     1.06130
H3291       H  0.77032181  0.80233821  0.21609850     0.32810
O3292       O  0.74758963  0.80410168  0.20910887    -1.29730
H3293       H  0.71143465  0.90358687  0.21653702     0.32830
O3294       O  0.70976940  0.87943917  0.20931664    -1.31120
O3295       O  0.51831508  0.54186219  0.59665260    -0.86560
O3296       O  0.65008812  0.51829184  0.49613533    -0.86720
O3297       O  0.60292966  0.49366579  0.59681070    -0.88390
O3298       O  0.61769933  0.60494814  0.55503293    -0.87150
O3299       O  0.59305552  0.61283276  0.51394380    -0.86740
O3300       O  0.55470009  0.92629769  0.59841460    -0.88110
O3301       O  0.65924585  0.55361116  0.53597961    -0.86590
O3302       O  0.58612416  0.56168809  0.59890933    -0.86170
Zr3303     Zr  0.59379527  0.53207594  0.55827787     2.84310
O3304       O  0.59291204  0.53036601  0.51051313    -1.08150
O3305       O  0.52968021  0.98252176  0.57320988    -1.08880
C3306       C  0.55421031  0.56038676  0.60829444     1.06550
C3307       C  0.67172201  0.54817078  0.51250110     1.06490
C3308       C  0.58603033  0.95773023  0.60793510     1.09480
C3309       C  0.61074926  0.62624378  0.53755708     1.07260
H3310       H  0.60251299  0.96767966  0.54986460     0.32810
O3311       O  0.57979522  0.96934528  0.54274712    -1.29100
H3312       H  0.54437497  0.56930752  0.54961724     0.32490
O3313       O  0.54260119  0.54505791  0.54250984    -1.30780
O3314       O  0.53694045  0.91914331  0.45689621    -0.86550
O3315       O  0.90593611  0.94680103  0.55502610    -0.88050
O3316       O  0.56421021  0.89451032  0.55513652    -0.86630
O3317       O  0.59215522  0.55255276  0.45666133    -0.86680
O3318       O  0.99397420  0.56687330  0.49606849    -0.86390
O3319       O  0.97005961  0.91271893  0.59748077    -0.86190
O3320       O  0.94460943  0.86184922  0.49622124    -0.86560
O3321       O  0.95588113  0.97341984  0.45724058    -0.86030
O3322       O  0.97021278  0.85320179  0.53666381    -0.87090
O3323       O  0.00625412  0.53983617  0.45429982    -0.86250
O3324       O  0.59730780  0.91926891  0.51448075    -0.86650
O3325       O  0.94921725  0.95950705  0.59850868    -0.86370
O3326       O  0.95855266  0.54024084  0.53570684    -0.86020
O3327       O  0.60933847  0.50314875  0.45414940    -0.86430
O3328       O  0.46995465  0.90221064  0.45386383    -0.86720
O3329       O  0.89726664  0.91358385  0.51430436    -0.88060
Zr3330     Zr  0.57771925  0.96621514  0.49477584     2.83100
Zr3331     Zr  0.97942697  0.99591938  0.55779569     2.83500
Zr3332     Zr  0.51546144  0.91884830  0.55836448     2.84090
Zr3333     Zr  0.54525613  0.54608096  0.49450788     2.83360
Zr3334     Zr  0.96414386  0.93339998  0.49460873     2.84220
O3335       O  0.98067886  0.99686322  0.51012003    -1.08630
O3336       O  0.51406754  0.91912554  0.51058182    -1.08130
C3337       C  0.50125270  0.90167195  0.44496374     1.06520
C3338       C  0.88417584  0.91809369  0.53782873     1.09140
C3339       C  0.59274944  0.90149502  0.53794044     1.06700
C3340       C  0.60983148  0.53470644  0.44500739     1.07060
C3341       C  0.96409620  0.55837719  0.51231752     1.06640
C3342       C  0.95109180  0.92971748  0.60860565     1.06190
C3343       C  0.95287828  0.84068541  0.51285174     1.06620
C3344       C  0.97360987  0.50890463  0.44558109     1.06130
H3345       H  0.94146761  0.90925611  0.54982954     0.32810
O3346       O  0.96571679  0.93177836  0.54259665    -1.29730
H3347       H  0.52852464  0.48166129  0.45936982     0.32830
O3348       O  0.52880025  0.98171947  0.47913566    -1.31120
C3349       C  0.63050161  0.68657576  0.86572477    -0.12330
C3350       C  0.65077178  0.67182025  0.85007491     0.04670
C3351       C  0.63078838  0.63115998  0.84116838    -0.07620
C3352       C  0.59047728  0.60598559  0.84875595    -0.08370
C3353       C  0.57033256  0.62065310  0.86462699    -0.02920
C3354       C  0.59013133  0.66145763  0.87320072     0.03900
N3355       N  0.57024815  0.67764249  0.88966961     0.66410
H3356       H  0.64602776  0.71823327  0.87136539     0.15300
H3357       H  0.57501914  0.57430964  0.84316665     0.15020
N3358       N  0.65041477  0.61513502  0.82429720     0.74110
O3359       O  0.59107596  0.70928854  0.90367350    -0.39340
O3360       O  0.53228775  0.66291952  0.88839255    -0.39280
O3361       O  0.68827126  0.62924081  0.82569374    -0.39990
O3362       O  0.62940625  0.58441026  0.80950339    -0.40050
C3363       C  0.56379722  0.75658306  0.01244046    -0.12330
C3364       C  0.55319975  0.77049378  0.03554298     0.04670
C3365       C  0.51815781  0.74450134  0.05075772    -0.07620
C3366       C  0.49436139  0.70452862  0.04228223    -0.08370
C3367       C  0.50471926  0.69073063  0.01900317    -0.02920
C3368       C  0.54006752  0.71658373  0.00400676     0.03900
N3369       N  0.55201405  0.70269990  0.98032148     0.66410
H3370       H  0.59156342  0.77658748  0.00167775     0.15300
H3371       H  0.96655071  0.68458618  0.05302255     0.15020
N3372       N  0.50637874  0.75828768  0.07457001     0.74110
O3373       O  0.57258121  0.72714128  0.96165972    -0.39340
O3374       O  0.54517959  0.66693106  0.97901060    -0.39280
O3375       O  0.51234118  0.79375498  0.07572621    -0.39990
O3376       O  0.48682279  0.73397950  0.09355457    -0.40050
C3377       C  0.92888282  0.77402623  0.18508683    -0.12330
C3378       C  0.90611002  0.78800756  0.19857092     0.04670
C3379       C  0.92273366  0.82954626  0.20455499    -0.07620
C3380       C  0.96231168  0.85617802  0.19618062    -0.08370
C3381       C  0.98516247  0.84214300  0.18286934    -0.02920
C3382       C  0.96844309  0.80067575  0.17673404     0.03900
N3383       N  0.49042781  0.78511458  0.16193321     0.66410
H3384       H  0.91550614  0.74198504  0.18114600     0.15300
H3385       H  0.97577643  0.88821557  0.20016629     0.15020
N3386       N  0.90079106  0.84522989  0.21932110     0.74110
O3387       O  0.98012315  0.74837512  0.16400908    -0.39340
O3388       O  0.51693776  0.80634391  0.14449519    -0.39280
O3389       O  0.87325720  0.82371122  0.23608363    -0.39990
O3390       O  0.91184026  0.88220697  0.21776009    -0.40050
C3391       C  0.80880835  0.00823329  0.54131863    -0.12330
C3392       C  0.81711308  0.50646462  0.51375745     0.04670
C3393       C  0.78657940  0.47814859  0.49587963    -0.07620
C3394       C  0.74798913  0.95255074  0.50618453    -0.08370
C3395       C  0.73978743  0.95414552  0.53381498    -0.02920
C3396       C  0.77025513  0.98277451  0.55159209     0.03900
N3397       N  0.76239821  0.98689584  0.57985121     0.66410
H3398       H  0.83207470  0.03067010  0.55465580     0.15300
H3399       H  0.72473093  0.93005690  0.49287601     0.15020
N3400       N  0.79448044  0.47426505  0.46758653     0.74110
O3401       O  0.78920496  0.99449504  0.59791211    -0.39340
O3402       O  0.73035896  0.98674833  0.58649637    -0.39280
O3403       O  0.82677626  0.47499940  0.46084721    -0.39990
O3404       O  0.76747969  0.46621164  0.44958891    -0.40050
C3405       C  0.73893951  0.57998973  0.68871138    -0.12330
C3406       C  0.72484153  0.60500127  0.69843171     0.04670
C3407       C  0.68292607  0.58918796  0.70327494    -0.07620
C3408       C  0.65620301  0.54846560  0.69786120    -0.08370
C3409       C  0.67018356  0.52357391  0.68781704    -0.02920
C3410       C  0.71213633  0.53922546  0.68306424     0.03900
N3411       N  0.72796819  0.51507921  0.67180049     0.66410
H3412       H  0.77132406  0.59226539  0.68633604     0.15300
H3413       H  0.62383986  0.53628341  0.70033442     0.15020
N3414       N  0.66702385  0.61328619  0.71437091     0.74110
O3415       O  0.76250997  0.53185833  0.66076957    -0.39340
O3416       O  0.70922619  0.97727514  0.67441536    -0.39280
O3417       O  0.68313341  0.65024248  0.70882643    -0.39990
O3418       O  0.63411491  0.59675597  0.72745761    -0.40050
C3419       C  0.90430396  0.92076867  0.35035706    -0.12330
C3420       C  0.88904064  0.93953857  0.36705180     0.04670
C3421       C  0.84888232  0.91804908  0.37702770    -0.07620
C3422       C  0.82476418  0.87758775  0.36977334    -0.08370
C3423       C  0.83991013  0.85889281  0.35293004    -0.02920
C3424       C  0.88010948  0.88030795  0.34303911     0.03900
N3425       N  0.89643257  0.86178960  0.32540659     0.66410
H3426       H  0.93568997  0.93746058  0.34386965     0.15300
H3427       H  0.79335117  0.86093257  0.37621236     0.15020
N3428       N  0.83238646  0.93648398  0.39458741     0.74110
O3429       O  0.92575472  0.88327118  0.30978279    -0.39340
O3430       O  0.88408779  0.82453344  0.32692854    -0.39280
O3431       O  0.84407179  0.97356145  0.39271872    -0.39990
O3432       O  0.80322121  0.91493125  0.41030125    -0.40050
C3433       C  0.96859654  0.58259403  0.21524987    -0.12330
C3434       C  0.95780507  0.60548604  0.19837675     0.04670
C3435       C  0.93604620  0.58915226  0.17380212    -0.07620
C3436       C  0.92601724  0.54999135  0.16673375    -0.08370
C3437       C  0.93720340  0.52733642  0.18345691    -0.02920
C3438       C  0.95835886  0.54334291  0.20821002     0.03900
N3439       N  0.96956495  0.52070547  0.22626174     0.66410
H3440       H  0.98494025  0.59556573  0.23424097     0.15300
H3441       H  0.90955150  0.53692656  0.14779130     0.15020
N3442       N  0.92259988  0.61066365  0.15643875     0.74110
O3443       O  0.97426450  0.52858423  0.25158488    -0.39340
O3444       O  0.97733165  0.99462046  0.21697694    -0.39280
O3445       O  0.94378503  0.64838361  0.15361248    -0.39990
O3446       O  0.89129303  0.59140790  0.14162307    -0.40050
C3447       C  0.62017760  0.64561396  0.38732044    -0.12330
C3448       C  0.61932283  0.61749469  0.36839259     0.04670
C3449       C  0.60949083  0.61876533  0.34076201    -0.07620
C3450       C  0.60105862  0.64863148  0.33274689    -0.08370
C3451       C  0.60257966  0.67718552  0.35158191    -0.02920
C3452       C  0.61191941  0.67557418  0.37928176     0.03900
N3453       N  0.61442244  0.70444392  0.39919261     0.66410
H3454       H  0.62870889  0.64500414  0.40846540     0.15300
H3455       H  0.59260124  0.64931694  0.31159735     0.15020
N3456       N  0.60725577  0.58998621  0.32085367     0.74110
O3457       O  0.60459542  0.69388163  0.42374106    -0.39340
O3458       O  0.63022065  0.74127005  0.39309009    -0.39280
O3459       O  0.59338298  0.55351573  0.32729398    -0.39990
O3460       O  0.61568338  0.60015986  0.29610760    -0.40050
C3461       C  0.79866048  0.52434271  0.04086420    -0.12330
C3462       C  0.76938120  0.51242183  0.02020248     0.04670
C3463       C  0.75245872  0.97390699  0.00797774    -0.07620
C3464       C  0.76584424  0.94800722  0.01651472    -0.08370
C3465       C  0.79582921  0.96020798  0.03669513    -0.02920
C3466       C  0.81230991  0.99848740  0.04942962     0.03900
N3467       N  0.84221741  0.01121672  0.07108217     0.66410
H3468       H  0.81167216  0.55427958  0.04970584     0.15300
H3469       H  0.75253558  0.91806484  0.00761820     0.15020
N3470       N  0.72152210  0.96059863  0.98718085     0.74110
O3471       O  0.84436228  0.53589768  0.08906250    -0.39340
O3472       O  0.86852635  0.00042482  0.07125022    -0.39280
O3473       O  0.72930106  0.47824435  0.96434651    -0.39990
O3474       O  0.68919461  0.92712515  0.98974916    -0.40050
C3475       C  0.76258680  0.75445893  0.51289663    -0.12330
C3476       C  0.79383731  0.77244943  0.53222513     0.04670
C3477       C  0.81165006  0.75111797  0.54366013    -0.07620
C3478       C  0.79763881  0.71170107  0.53495864    -0.08370
C3479       C  0.76655885  0.69372748  0.51548051    -0.02920
C3480       C  0.74831760  0.71490935  0.50417066     0.03900
N3481       N  0.71510158  0.69700329  0.48462487     0.66410
H3482       H  0.74869955  0.77119723  0.50513120     0.15300
H3483       H  0.81152901  0.69508708  0.54296715     0.15020
N3484       N  0.84304974  0.76857547  0.56436972     0.74110
O3485       O  0.69154037  0.71101971  0.48204489    -0.39340
O3486       O  0.71019344  0.66887021  0.46879133    -0.39280
O3487       O  0.84679305  0.74625553  0.58174625    -0.39990
O3488       O  0.86900244  0.80575873  0.56422258    -0.40050
C3489       C  0.94031074  0.82067943  0.66707037    -0.12330
C3490       C  0.93968268  0.84777154  0.68627397     0.04670
C3491       C  0.94629439  0.84416430  0.71424137    -0.07620
C3492       C  0.95376129  0.81361132  0.72219090    -0.08370
C3493       C  0.95466339  0.78674450  0.70292731    -0.02920
C3494       C  0.94787116  0.79024493  0.67499933     0.03900
N3495       N  0.94764129  0.76298954  0.65463362     0.66410
H3496       H  0.93373695  0.82257113  0.64566706     0.15300
H3497       H  0.96020879  0.81153450  0.74359305     0.15020
N3498       N  0.94653892  0.87144030  0.73459534     0.74110
O3499       O  0.93150419  0.72576686  0.65957050    -0.39340
O3500       O  0.46029839  0.77549591  0.63077552    -0.39280
O3501       O  0.93423288  0.85904421  0.75852817    -0.39990
O3502       O  0.96238572  0.90860947  0.72956861    -0.40050
C3503       C  0.59826341  0.92597215  0.83951214    -0.12330
C3504       C  0.62009369  0.93897736  0.86405196     0.04670
C3505       C  0.62821399  0.91276893  0.87975391    -0.07620
C3506       C  0.61303785  0.87333513  0.87072872    -0.08370
C3507       C  0.59123760  0.86027837  0.84621927    -0.02920
C3508       C  0.58335093  0.88649392  0.83032731     0.03900
N3509       N  0.56006919  0.87339825  0.80523144     0.66410
H3510       H  0.59147071  0.94616406  0.82814447     0.15300
H3511       H  0.61984831  0.85320833  0.88217855     0.15020
N3512       N  0.65194456  0.92586088  0.90465235     0.74110
O3513       O  0.56604351  0.89852163  0.78655555    -0.39340
O3514       O  0.53113755  0.83758585  0.80253736    -0.39280
O3515       O  0.64484270  0.90118109  0.92385439    -0.39990
O3516       O  0.68235836  0.96096749  0.90658990    -0.40050
C3517       C  0.71477425  0.60622463  0.17508045    -0.12330
C3518       C  0.67425706  0.58127650  0.18293025     0.04670
C3519       C  0.66196058  0.54451221  0.19665340    -0.07620
C3520       C  0.69130405  0.53368421  0.20175773    -0.08370
C3521       C  0.73176233  0.55859252  0.19390400    -0.02920
C3522       C  0.74402922  0.59532719  0.18038796     0.03900
N3523       N  0.78545159  0.62143402  0.17193252     0.66410
H3524       H  0.72316358  0.63369196  0.16386035     0.15300
H3525       H  0.68309463  0.50623461  0.21294313     0.15020
N3526       N  0.62090134  0.51858594  0.20619582     0.74110
O3527       O  0.79802396  0.65802547  0.16651845    -0.39340
O3528       O  0.80869689  0.60748332  0.16762059    -0.39280
O3529       O  0.59181237  0.52292733  0.19810442    -0.39990
O3530       O  0.61356690  0.49120788  0.22340369    -0.40050
C3531       C  0.60327403  0.89214234  0.38802533    -0.12330
C3532       C  0.57530219  0.89180590  0.36887224     0.04670
C3533       C  0.58593648  0.90024531  0.34116546    -0.07620
C3534       C  0.62442291  0.90855586  0.33331212    -0.08370
C3535       C  0.65221888  0.90833376  0.35237652    -0.02920
C3536       C  0.64174596  0.90034831  0.38015567     0.03900
N3537       N  0.66889167  0.89928434  0.40034855     0.66410
H3538       H  0.59452347  0.88462306  0.40923974     0.15300
H3539       H  0.63315055  0.91608084  0.31209629     0.15020
N3540       N  0.55874106  0.90128080  0.32099570     0.74110
O3541       O  0.66833053  0.91004008  0.42471128    -0.39340
O3542       O  0.69061913  0.88403784  0.39468710    -0.39280
O3543       O  0.53637821  0.91573713  0.32685859    -0.39990
O3544       O  0.55969700  0.89113864  0.29652738    -0.40050
C3545       C  0.75243776  0.73472479  0.01148017    -0.12330
C3546       C  0.74117671  0.71695567  0.03721768     0.04670
C3547       C  0.76905643  0.71241826  0.05400567    -0.07620
C3548       C  0.80831378  0.72660913  0.04450224    -0.08370
C3549       C  0.81948920  0.74417425  0.01867959    -0.02920
C3550       C  0.79167381  0.74901370  0.00202682     0.03900
N3551       N  0.80291975  0.76858150  0.97576317     0.66410
H3552       H  0.73101904  0.73892214  0.99923387     0.15300
H3553       H  0.82971203  0.72232478  0.05670119     0.15020
N3554       N  0.75778908  0.69297609  0.08031630     0.74110
O3555       O  0.77692431  0.75767891  0.95669263    -0.39340
O3556       O  0.83762789  0.79910005  0.97227403    -0.39280
O3557       O  0.72292384  0.66274792  0.08393257    -0.39990
O3558       O  0.78390984  0.70358986  0.09928393    -0.40050
C3559       C  0.99409648  0.71750524  0.53304263    -0.12330
C3560       C  0.50909248  0.75055981  0.51550329     0.04670
C3561       C  0.54870491  0.76790659  0.50469488    -0.07620
C3562       C  0.57267439  0.75138080  0.51214161    -0.08370
C3563       C  0.55772427  0.71846746  0.52983539    -0.02920
C3564       C  0.51794093  0.70087413  0.54034703     0.03900
N3565       N  0.50173647  0.66684802  0.55866158     0.66410
H3566       H  0.96306261  0.70370966  0.54017132     0.15300
H3567       H  0.60377977  0.76527361  0.50515707     0.15020
N3568       N  0.56480350  0.80179441  0.48624551     0.74110
O3569       O  0.97401787  0.66098706  0.57525081    -0.39340
O3570       O  0.51227355  0.64057083  0.55672541    -0.39280
O3571       O  0.55334277  0.82742923  0.48749660    -0.39990
O3572       O  0.59311770  0.80808200  0.47008040    -0.40050
C3573       C  0.82439412  0.87913897  0.86574234    -0.12330
C3574       C  0.84004683  0.91431847  0.85020151     0.04670
C3575       C  0.88068689  0.93401190  0.84103437    -0.07620
C3576       C  0.90490016  0.91765283  0.84817818    -0.08370
C3577       C  0.88930827  0.88263745  0.86388001    -0.02920
C3578       C  0.84855033  0.86270047  0.87276823     0.03900
N3579       N  0.83156903  0.82657705  0.88918480     0.66410
H3580       H  0.79267328  0.86368620  0.87150987     0.15300
H3581       H  0.93665342  0.93314879  0.84249420     0.15020
N3582       N  0.89759742  0.96988637  0.82435687     0.74110
O3583       O  0.80065067  0.81675067  0.90366884    -0.39340
O3584       O  0.84493730  0.80249742  0.88754758    -0.39280
O3585       O  0.88379075  0.99364497  0.82536527    -0.39990
O3586       O  0.92865338  0.97966253  0.81003307    -0.40050
C3587       C  0.93407044  0.55977256  0.72011883    -0.12330
C3588       C  0.90634777  0.55986117  0.70096218     0.04670
C3589       C  0.91684492  0.56789851  0.67320718    -0.07620
C3590       C  0.95507561  0.57542265  0.66532232    -0.08370
C3591       C  0.98258630  0.57475941  0.68443269    -0.02920
C3592       C  0.97215625  0.56706000  0.71221817     0.03900
N3593       N  0.99891602  0.56521287  0.73237152     0.66410
H3594       H  0.92530482  0.55236663  0.74134292     0.15300
H3595       H  0.96385187  0.58267891  0.64409071     0.15020
N3596       N  0.88973057  0.56915464  0.65304738     0.74110
O3597       O  0.99871786  0.57612240  0.75674604    -0.39340
O3598       O  0.51976674  0.54901443  0.72667965    -0.39280
O3599       O  0.86678154  0.58284898  0.65912448    -0.39990
O3600       O  0.89111188  0.55975213  0.62845268    -0.40050
loop_ 
_geom_bond_atom_site_label_1 
_geom_bond_atom_site_label_2 
_geom_bond_distance 
_geom_bond_site_symmetry_2 
_ccdc_geom_bond_type 
C1          C498   1.496       .  S
C1          C902   1.407       .  A
C1          C906   1.425       .  A
C2            C3   1.393       .  A
C2          C901   1.407   1_545  A
C2          H907   1.083       .  S
C3          C888   1.460       .  S
C3            C4   1.381       .  A
C4            C5   1.385       .  A
C4            H8   1.086       .  S
C5          C336   1.476       .  S
C5            C6   1.421       .  A
C6          C901   1.425   1_545  A
C6            H9   1.082   1_545  S
H7          C902   1.083       .  S
C10         C529   1.496       .  S
C10          C11   1.408       .  A
C10          C15   1.423       .  A
C11          C12   1.394       .  A
C11          H16   1.083       .  S
C12        C2691   1.461   1_455  S
C12          C13   1.381       .  A
C13          C14   1.385       .  A
C13          H17   1.085   1_455  S
C14         C606   1.476       .  S
C14          C15   1.423       .  A
C15          H18   1.083       .  S
C19        C1238   1.501       .  S
C19          C20   1.408       .  A
C19          C24   1.429       .  A
C20          C21   1.389       .  A
C20          H25   1.084       .  S
C21         C874   1.449       .  S
C21          C22   1.378       .  A
C22          C23   1.388       .  A
C22          H26   1.085       .  S
C23         C534   1.486       .  S
C23          C24   1.429       .  A
C24          H27   1.082       .  S
C28         C374   1.504       .  S
C28          C29   1.408       .  A
C28          C33   1.429       .  A
C29          C30   1.390       .  A
C29          H34   1.084       .  S
C30         C877   1.449       .  S
C30          C31   1.380       .  A
C31          C32   1.385       .  A
C31          H35   1.085       .  S
C32         C390   1.487       .  S
C32          C33   1.431       .  A
C33          H36   1.083       .  S
C37         C643   1.499       .  S
C37          C38   1.407       .  A
C37          C42   1.429       .  A
C38          C39   1.387       .  A
C38        H1843   1.084       .  S
C39        C2660   1.449       .  S
C39          C40   1.378       .  A
C40          C41   1.389       .  A
C40          H44   1.085       .  S
C41         C444   1.486       .  S
C41          C42   1.428       .  A
C42          H45   1.083       .  S
H43        C1838   1.084       .  S
C46         C609   1.503       .  S
C46          C47   1.409       .  A
C46          C51   1.427       .  A
C47          C48   1.391       .  A
C47          H52   1.084       .  S
C48         C863   1.449       .  S
C48          C49   1.381       .  A
C49          C50   1.385       .  A
C49          H53   1.085       .  S
C50         C532   1.484       .  S
C50          C51   1.430       .  A
C51          H54   1.083       .  S
C55         C393   1.503       .  S
C55          C56   1.428   1_554  A
C55          C60   1.408       .  A
C56          C57   1.429       .  A
C56          H61   1.083       .  S
C57         C367   1.483       .  S
C57          C58   1.385       .  A
C58          C59   1.380   1_556  A
C58          H62   1.085       .  S
C59         C849   1.454       .  S
C59          C60   1.390       .  A
C60          H63   1.084       .  S
C64         C427   1.499       .  S
C64          C65   1.407       .  A
C64          C69   1.429       .  A
C65          C66   1.388       .  A
C65          H70   1.084       .  S
C66         C846   1.453       .  S
C66          C67   1.378       .  A
C67          C68   1.388       .  A
C67          H71   1.085       .  S
C68         C552   1.483       .  S
C68          C69   1.428       .  A
C69          H72   1.083       .  S
C73         C446   1.499       .  S
C73          C74   1.426       .  A
C73          C78   1.409       .  A
C74          C75   1.423       .  A
C74          H79   1.083       .  S
C75        C2437   1.479       .  S
C75        C1876   1.386       .  A
C76          C77   1.380       .  A
C76        C1875   1.386   1_455  A
C76          H80   1.086       .  S
C77         C832   1.463       .  S
C77        C1878   1.394       .  A
C78        C1877   1.394       .  A
C78        H1881   1.083       .  S
H81        C1878   1.083       .  S
C82        C1382   1.501       .  S
C82          C83   1.410       .  A
C82          C87   1.425       .  A
C83          C84   1.395       .  A
C83          H88   1.083       .  S
C84         C835   1.464       .  S
C84          C85   1.382       .  A
C85          C86   1.384       .  A
C85          H89   1.086       .  S
C86         C583   1.480       .  S
C86          C87   1.426       .  A
C87          H90   1.083       .  S
C91         C554   1.502       .  S
C91          C92   1.408       .  A
C91          C96   1.429       .  A
C92          C93   1.389       .  A
C92          H97   1.084       .  S
C93         C818   1.452       .  S
C93          C94   1.380       .  A
C94          C95   1.389       .  A
C94          H98   1.085       .  S
C95         C421   1.487       .  S
C95          C96   1.429       .  A
C96          H99   1.083       .  S
C100        C590   1.504       .  S
C100       C1001   1.409       .  A
C100       C1005   1.426       .  A
C101        C102   1.392       .  A
C101       C1000   1.409       .  A
C101       H1006   1.084       .  S
C102        C821   1.452       .  S
C102        C103   1.383       .  A
C103        C104   1.386       .  A
C103        H107   1.086       .  S
C104        C475   1.483       .  S
C104        C105   1.429       .  A
C105       C1000   1.426       .  A
C105        H108   1.083       .  S
H106       C1001   1.084       .  S
C109       C2168   1.499       .  S
C109        C110   1.428       .  A
C109        C114   1.407       .  A
C110        C111   1.429       .  A
C110        H115   1.083       .  S
C111        C530   1.487       .  S
C111        C112   1.390       .  A
C112        C113   1.379       .  A
C112        H116   1.085       .  S
C113        C807   1.453       .  S
C113        C114   1.388       .  A
C114        H117   1.084       .  S
C118        C337   1.502       .  S
C118        C119   1.410       .  A
C118        C123   1.426       .  A
C119       C1020   1.392   1_545  A
C119        H124   1.083       .  S
C120        C804   1.455       .  S
C120        C121   1.381       .  A
C120       C1019   1.392       .  A
C121       C1022   1.385       .  A
C121        H125   1.086       .  S
C122       C1292   1.481       .  S
C122        C123   1.427       .  A
C122       C1021   1.385   1_545  A
C123        H126   1.083       .  S
C127        C500   1.504       .  S
C127        C128   1.409       .  A
C127        C132   1.427       .  A
C128        C129   1.396       .  A
C128        H133   1.083       .  S
C129        C790   1.465       .  S
C129        C130   1.383       .  A
C130        C131   1.384       .  A
C130        H134   1.086       .  S
C131        C642   1.483       .  S
C131        C132   1.427       .  A
C132        H135   1.083       .  S
C136        C536   1.500       .  S
C136        C137   1.427   1_455  A
C136        C141   1.407   1_455  A
C137       C1938   1.425       .  A
C137        H142   1.083   1_655  S
C138        C371   1.481       .  S
C138        C139   1.387       .  A
C138       C1937   1.425       .  A
C139        C140   1.381       .  A
C139        H143   1.086       .  S
C140        C793   1.463       .  S
C140       C1941   1.393       .  A
C141       C1940   1.393       .  A
C141        H144   1.083   1_655  S
C145        C607   1.502       .  S
C145        C146   1.430       .  A
C145        C150   1.407       .  A
C146        C147   1.430       .  A
C146        H151   1.082       .  S
C147        C447   1.485       .  S
C147        C148   1.388       .  A
C148        C149   1.378       .  A
C148        H152   1.086       .  S
C149        C779   1.447       .  S
C149        C150   1.387       .  A
C150        H153   1.084       .  S
C154        C638   1.505       .  S
C154        C155   1.429       .  A
C154        C159   1.407       .  A
C155        C156   1.432       .  A
C155        H160   1.083       .  S
C156        C499   1.487       .  S
C156        C157   1.386       .  A
C157        C158   1.379       .  A
C157        H161   1.085       .  S
C158        C776   1.447       .  S
C158        C159   1.389       .  A
C159        H162   1.084       .  S
C163        C423   1.501       .  S
C163        C164   1.409       .  A
C163        C168   1.427   1_554  A
C164        C165   1.390       .  A
C164        H169   1.084       .  S
C165        C762   1.448       .  S
C165        C166   1.378   1_554  A
C166        C167   1.385       .  A
C166        H170   1.086       .  S
C167        C369   1.481       .  S
C167        C168   1.428       .  A
C168        H171   1.083       .  S
C172        C425   1.499       .  S
C172        C173   1.407       .  A
C172        C177   1.428       .  A
C173        C174   1.387       .  A
C173        H178   1.084       .  S
C174        C765   1.447       .  S
C174        C175   1.377       .  A
C175        C176   1.389       .  A
C175        H179   1.085       .  S
C176        C587   1.484       .  S
C176        C177   1.428       .  A
C177        H180   1.083       .  S
C181        C478   1.502       .  S
C181        C182   1.408       .  A
C181        C186   1.429       .  A
C182        C183   1.394       .  A
C182        H187   1.083       .  S
C183        C748   1.461       .  S
C183        C184   1.380       .  A
C184        C185   1.385       .  A
C184        H188   1.086       .  S
C185        C640   1.482       .  S
C185        C186   1.426       .  A
C186        H189   1.082       .  S
C190       C2280   1.502       .  S
C190        C191   1.410       .  A
C190        C195   1.426       .  A
C191        C192   1.394       .  A
C191        H196   1.083       .  S
C192        C751   1.462       .  S
C192        C193   1.381       .  A
C193        C194   1.384       .  A
C193        H197   1.085       .  S
C194        C585   1.481       .  S
C194        C195   1.427       .  A
C195        H198   1.083       .  S
C199        C553   1.503       .  S
C199        C200   1.408   1_455  A
C199       C2004   1.426   1_455  A
C200       C2001   1.392       .  A
C200        H205   1.084   1_655  S
C201        C734   1.457       .  S
C201        C202   1.383       .  A
C201       C2000   1.392       .  A
C202        C203   1.387       .  A
C202        H206   1.085       .  S
C203        C481   1.484       .  S
C203        C204   1.429       .  A
C204       C1999   1.426       .  A
C204       H2007   1.083       .  S
H207       C2004   1.083   1_455  S
C208        C584   1.498       .  S
C208        C209   1.409       .  A
C208        C213   1.427       .  A
C209        C210   1.389       .  A
C209        H214   1.084       .  S
C210       C1637   1.454       .  S
C210        C211   1.380       .  A
C211        C212   1.388       .  A
C211       H1115   1.086       .  S
C212        C428   1.482       .  S
C212        C213   1.425       .  A
C213        H216   1.083       .  S
H215       C1111   1.086   1_545  S
C217        C445   1.501       .  S
C217        C218   1.408       .  A
C217        C222   1.427       .  A
C218        C219   1.389       .  A
C218        H223   1.084       .  S
C219        C723   1.447       .  S
C219        C220   1.380       .  A
C220        C221   1.386       .  A
C220        H224   1.085       .  S
C221        C589   1.484       .  S
C221        C222   1.430       .  A
C222        H225   1.083       .  S
C226        C476   1.501       .  S
C226        C227   1.407       .  A
C226        C231   1.429       .  A
C227       C1128   1.387   1_545  A
C227        H232   1.084       .  S
C228        C720   1.448       .  S
C228        C229   1.378       .  A
C228       C1127   1.387       .  A
C229       C1130   1.387       .  A
C229        H233   1.085       .  S
C230        C644   1.485       .  S
C230        C231   1.429       .  A
C230       C1129   1.387   1_545  A
C231        H234   1.082       .  S
C235        C531   1.505       .  S
C235        C236   1.409       .  A
C235        C240   1.428       .  A
C236        C237   1.393       .  A
C236        H241   1.084       .  S
C237        C706   1.457       .  S
C237        C238   1.382       .  A
C238        C239   1.388       .  A
C238        H242   1.085       .  S
C239        C339   1.485       .  S
C239        C240   1.427       .  A
C240        H243   1.083       .  S
C244        C533   1.507       .  S
C244        C245   1.409       .  A
C244        C249   1.429       .  A
C245        C246   1.393       .  A
C245        H250   1.084       .  S
C246       C1609   1.455       .  S
C246        C247   1.382       .  A
C247        C248   1.386       .  A
C247       H1151   1.085       .  S
C248        C608   1.488       .  S
C248        C249   1.431       .  A
C249        H252   1.083       .  S
H251       C1147   1.085   1_545  S
C253        C641   1.498       .  S
C253        C254   1.407       .  A
C253        C258   1.427       .  A
C254        C255   1.391       .  A
C254        H259   1.084       .  S
C255        C692   1.459       .  S
C255        C256   1.378       .  A
C256        C257   1.388       .  A
C256        H260   1.085       .  S
C257        C479   1.481       .  S
C257        C258   1.426       .  A
C258        H261   1.083       .  S
C262        C639   1.502       .  S
C262        C263   1.409       .  A
C262        C267   1.427       .  A
C263        C264   1.393       .  A
C263        H268   1.083       .  S
C264        C695   1.460       .  S
C264        C265   1.380       .  A
C265        C266   1.384       .  A
C265        H269   1.085       .  S
C266        C501   1.481       .  S
C266        C267   1.428       .  A
C267        H270   1.083       .  S
C271        C588   1.500       .  S
C271        C272   1.407       .  A
C271        C276   1.427       .  A
C272        C273   1.389       .  A
C272        H277   1.084       .  S
C273        C678   1.448       .  S
C273        C274   1.380       .  A
C274        C275   1.387       .  A
C274        H278   1.085       .  S
C275        C477   1.483       .  S
C275        C276   1.428       .  A
C276        H279   1.083       .  S
C280        C586   1.498       .  S
C280        C281   1.407       .  A
C280        C285   1.428       .  A
C281        C282   1.388       .  A
C281        H286   1.084       .  S
C282       C2481   1.449   1_455  S
C282        C283   1.378       .  A
C283        C284   1.389       .  A
C283        H287   1.085   1_455  S
C284        C424   1.483       .  S
C284        C285   1.426       .  A
C285        H288   1.083       .  S
C289        C422   1.502       .  S
C289        C290   1.427   1_554  A
C289        C294   1.409       .  A
C290        C291   1.429       .  A
C290        H295   1.083       .  S
C291        C373   1.484       .  S
C291        C292   1.385       .  A
C292        C293   1.380   1_556  A
C292        H296   1.085       .  S
C293       C2467   1.452       .  S
C293        C294   1.390       .  A
C294        H297   1.084       .  S
C298        C391   1.499       .  S
C298        C299   1.428       .  A
C298        C303   1.408       .  A
C299        C300   1.426       .  A
C299        H304   1.083       .  S
C300        C555   1.483       .  S
C300        C301   1.387       .  A
C301        C302   1.378       .  A
C301        H305   1.085       .  S
C302        C664   1.452       .  S
C302        C303   1.389       .  A
C303        H306   1.084       .  S
C307        C370   1.498       .  S
C307        C308   1.428       .  A
C307        C312   1.407       .  A
C308        C309   1.427       .  A
C308        H313   1.083       .  S
C309        C535   1.486       .  S
C309        C310   1.390       .  A
C310        C311   1.379       .  A
C310        H314   1.085       .  S
C311        C650   1.451       .  S
C311        C312   1.388       .  A
C312        H315   1.084       .  S
C316        C372   1.502       .  S
C316        C317   1.408       .  A
C316        C321   1.428       .  A
C317       C2118   1.390       .  A
C317        H322   1.084       .  S
C318        C653   1.450       .  S
C318        C319   1.381       .  A
C318       C2117   1.390   1_455  A
C319       C2120   1.388   1_455  A
C319        H323   1.085       .  S
C320       C2226   1.487       .  S
C320        C321   1.430       .  A
C320       C2119   1.388       .  A
C321        H324   1.083       .  S
O325       Zr361   2.497       .  S
O325        C336   1.308       .  A
O326       Zr360   2.474       .  S
O326        C337   1.297       .  A
O327       Zr333   2.464       .  S
O327        C338   1.294       .  A
O328       Zr333   2.503       .  S
O328        C339   1.309       .  A
O329       Zr363   2.393       .  S
O329        C339   1.283       .  A
O330       Zr362   2.456       .  S
O330        C338   1.299       .  A
O331       Zr333   2.457       .  S
O331        C337   1.299       .  A
O332       Zr333   2.386       .  S
O332        C336   1.281       .  A
Zr333       O334   2.317       .  S
Zr333       O335   2.354       .  S
Zr333       O343   2.344       .  S
Zr333       O341   2.346       .  S
O334       Zr360   2.332       .  S
O334       Zr363   2.355       .  S
O335       Zr361   2.315       .  S
O335       Zr362   2.333       .  S
C338        C919   1.501   1_545  S
H340        O341   0.963       .  S
O341       Zr360   2.364       .  S
O341       Zr362   2.315       .  S
H342        O343   0.965       .  S
O343       Zr361   2.345       .  S
O343       Zr363   2.343       .  S
O344       Zr360   2.512       .  S
O344        C367   1.311       .  A
O345       Zr361   2.460       .  S
O345        C368   1.293       .  A
O346       Zr362   2.513       .  S
O346        C369   1.311       .  A
O347       Zr363   2.456       .  S
O347        C370   1.293       .  A
O348       Zr363   2.499       .  S
O348        C371   1.309       .  A
O349       Zr362   2.468       .  S
O349        C372   1.295       .  A
O350       Zr364   2.510       .  S
O350        C373   1.311       .  A
O351       Zr364   2.471       .  S
O351        C374   1.296       .  A
O352       Zr362   2.379       .  S
O352        C373   1.280       .  A
O353       Zr363   2.464       .  S
O353        C374   1.301       .  A
O354       Zr360   2.373       .  S
O354        C369   1.279       .  A
O355       Zr361   2.462       .  S
O355        C372   1.300       .  A
O356       Zr361   2.391       .  S
O356        C371   1.282       .  A
O357       Zr360   2.455       .  S
O357        C370   1.299       .  A
O358       Zr364   2.378       .  S
O358        C367   1.280       .  A
O359       Zr364   2.458       .  S
O359        C368   1.300       .  A
Zr360       O366   2.338       .  S
Zr360       O378   2.313       .  S
Zr361       O365   2.354       .  S
Zr361       O376   2.345       .  S
Zr362       O366   2.337       .  S
Zr362       O376   2.366       .  S
Zr363       O365   2.314       .  S
Zr363       O378   2.343       .  S
Zr364       O365   2.332       .  S
Zr364       O366   2.338       .  S
Zr364       O378   2.365       .  S
Zr364       O376   2.315       .  S
C368       C1909   1.499       .  S
H375        O376   0.963       .  S
H377        O378   0.962       .  S
O379       Zr415   2.518       .  S
O379        C390   1.312       .  A
O380       Zr414   2.458       .  S
O380        C391   1.293       .  A
O381       Zr387   2.512       .  S
O381        C392   1.311       .  A
O382      Zr2187   2.468       .  S
O382        C393   1.295   1_556  A
O383       Zr417   2.464       .  S
O383        C393   1.301       .  A
O384       Zr416   2.374       .  S
O384       C1292   1.279       .  A
O385       Zr387   2.457   1_554  S
O385        C391   1.299       .  A
O386      Zr2187   2.379       .  S
O386        C390   1.280       .  A
Zr387      O2182   2.468   1_455  S
Zr387      O2186   2.379       .  S
Zr387       O388   2.333   1_556  S
Zr387       O389   2.339       .  S
Zr387       O395   2.314   1_556  S
Zr387      O2197   2.363   1_456  S
O388       Zr414   2.354       .  S
O388      Zr2217   2.315   1_455  S
O389      Zr2215   2.338   1_455  S
O389      Zr1316   2.341       .  S
C392       C1022   1.481       .  S
C392       O1284   1.279       .  A
H394        O395   0.963       .  S
O395       Zr414   2.347       .  S
O395      Zr1316   2.365   1_554  S
H396        O397   0.962       .  S
O397       Zr415   2.314   1_554  S
O397       Zr417   2.345       .  S
O397      Zr2187   2.363   1_554  S
O398      Zr1314   2.497   1_545  S
O398        C421   1.308       .  A
O399      Zr1315   2.469   1_545  S
O399        C422   1.296   1_556  A
O400       Zr416   2.470       .  S
O400        C423   1.296   1_556  A
O401       Zr417   2.495       .  S
O401       C2224   1.307       .  A
O402       Zr417   2.457       .  S
O402        C425   1.293       .  A
O403       Zr416   2.509       .  S
O403        C426   1.310       .  A
O404       Zr418   2.455       .  S
O404        C427   1.292       .  A
O405      Zr2218   2.493   1_565  S
O405       C1328   1.307       .  A
O406       Zr416   2.457   1_554  S
O406        C427   1.300       .  A
O407       Zr417   2.395       .  S
O407        C428   1.283       .  A
O408      Zr1314   2.459   1_545  S
O408        C423   1.300       .  A
O409      Zr1315   2.387   1_545  S
O409       C2226   1.282       .  A
O410       Zr415   2.458   1_554  S
O410        C425   1.300       .  A
O411       Zr414   2.395       .  S
O411        C424   1.283       .  A
O412       Zr418   2.401       .  S
O412        C421   1.284       .  A
O413      Zr2218   2.463       .  S
O413        C422   1.300       .  A
Zr414      O1298   2.497       .  S
Zr414      O1308   2.459       .  S
Zr414       O432   2.345       .  S
Zr414      O1320   2.316       .  S
Zr415      O1299   2.469       .  S
Zr415      O1309   2.387       .  S
Zr415       O419   2.336   1_556  S
Zr415      O2189   2.338       .  S
Zr415      O3130   2.366   1_556  S
Zr416       O420   2.331   1_556  S
Zr416       O430   2.311   1_556  S
Zr416      O1289   2.341   1_545  S
Zr416      O1295   2.365   1_546  S
Zr417       O419   2.354       .  S
Zr417      O2188   2.315       .  S
Zr417      O2232   2.347       .  S
Zr418      O2205   2.493   1_445  S
Zr418      O2213   2.463   1_455  S
Zr418       O420   2.354       .  S
Zr418       O430   2.345       .  S
Zr418      O3119   2.317   1_445  S
Zr418      O1332   2.345   1_545  S
O419      Zr3118   2.317       .  S
O420      Zr1314   2.316   1_545  S
C424       O2201   1.307       .  A
C426       C2120   1.487   1_455  S
C426       O2209   1.282   1_455  A
C428       O1305   1.307       .  A
H429        O430   0.962       .  S
O430      Zr3115   2.366   1_444  S
H431        O432   0.965       .  S
O432      Zr2217   2.347   1_455  S
O432      Zr1318   2.345       .  S
O433       Zr469   2.496       .  S
O433        C444   1.308       .  A
O434       Zr468   2.466       .  S
O434        C445   1.295       .  A
O435       Zr441   2.457       .  S
O435        C446   1.293       .  A
O436       Zr441   2.504       .  S
O436        C447   1.309       .  A
O437       Zr471   2.392       .  S
O437        C447   1.282       .  A
O438       Zr470   2.457       .  S
O438        C446   1.299       .  A
O439       Zr441   2.463       .  S
O439        C445   1.300       .  A
O440       Zr441   2.397       .  S
O440        C444   1.283       .  A
Zr441       O442   2.315       .  S
Zr441       O443   2.356       .  S
Zr441       O451   2.343       .  S
Zr441       O449   2.347       .  S
O442       Zr468   2.334       .  S
O442       Zr471   2.353       .  S
O443       Zr469   2.315       .  S
O443       Zr470   2.332       .  S
H448        O449   0.962       .  S
O449       Zr468   2.367       .  S
O449       Zr470   2.315       .  S
H450        O451   0.965       .  S
O451       Zr469   2.347       .  S
O451       Zr471   2.346       .  S
O452       Zr468   2.520       .  S
O452        C475   1.312       .  A
O453       Zr469   2.457       .  S
O453        C476   1.293       .  A
O454       Zr470   2.508       .  S
O454        C477   1.310       .  A
O455       Zr471   2.458       .  S
O455        C478   1.293       .  A
O456       Zr471   2.495       .  S
O456        C479   1.308       .  A
O457       Zr470   2.470       .  S
O457        C480   1.296       .  A
O458       Zr472   2.515       .  S
O458        C481   1.311       .  A
O459       Zr472   2.468       .  S
O459        C482   1.296       .  A
O460       Zr470   2.378       .  S
O460        C481   1.280       .  A
O461       Zr471   2.459       .  S
O461        C482   1.299       .  A
O462       Zr468   2.382       .  S
O462        C477   1.281       .  A
O463       Zr469   2.462       .  S
O463        C480   1.300       .  A
O464       Zr469   2.391       .  S
O464        C479   1.282       .  A
O465       Zr468   2.464       .  S
O465        C478   1.301       .  A
O466       Zr472   2.373       .  S
O466        C475   1.279       .  A
O467       Zr472   2.459       .  S
O467        C476   1.300       .  A
Zr468       O474   2.338       .  S
Zr468       O486   2.315       .  S
Zr469       O473   2.356       .  S
Zr469       O484   2.345       .  S
Zr470       O474   2.337       .  S
Zr470       O484   2.363       .  S
Zr471       O473   2.316       .  S
Zr471       O486   2.347       .  S
Zr472       O473   2.332       .  S
Zr472       O474   2.336       .  S
Zr472       O486   2.365       .  S
Zr472       O484   2.312       .  S
C480       C1990   1.502       .  S
C482        C982   1.501   1_545  S
H483        O484   0.962       .  S
H485        O486   0.963       .  S
O487       Zr523   2.449       .  S
O487        C498   1.292       .  A
O488       Zr522   2.520       .  S
O488        C499   1.313       .  A
O489       Zr495   2.466       .  S
O489        C500   1.295       .  A
O490       Zr495   2.515       .  S
O490        C501   1.312       .  A
O491       Zr525   2.372       .  S
O491        C501   1.278       .  A
O492       Zr524   2.470       .  S
O492        C500   1.302       .  A
O493       Zr495   2.377       .  S
O493        C499   1.279       .  A
O494       Zr495   2.456       .  S
O494        C498   1.299       .  A
Zr495       O496   2.336       .  S
Zr495       O497   2.331       .  S
Zr495       O505   2.315       .  S
Zr495       O503   2.363       .  S
O496       Zr522   2.337       .  S
O496       Zr525   2.341       .  S
O497       Zr523   2.354       .  S
O497       Zr524   2.319       .  S
H502        O503   0.962       .  S
O503       Zr522   2.308       .  S
O503       Zr524   2.345       .  S
H504        O505   0.963       .  S
O505       Zr523   2.346       .  S
O505       Zr525   2.366       .  S
O506       Zr522   2.464       .  S
O506        C529   1.295       .  A
O507       Zr523   2.492       .  S
O507        C530   1.307       .  A
O508       Zr524   2.463       .  S
O508        C531   1.295       .  A
O509       Zr525   2.519       .  S
O509        C532   1.312       .  A
O510       Zr525   2.474       .  S
O510        C533   1.297       .  A
O511       Zr524   2.500       .  S
O511        C534   1.309       .  A
O512       Zr526   2.491       .  S
O512        C535   1.306       .  A
O513       Zr526   2.455       .  S
O513        C536   1.293       .  A
O514       Zr524   2.402       .  S
O514        C535   1.284       .  A
O515       Zr525   2.461       .  S
O515        C536   1.300       .  A
O516       Zr522   2.461       .  S
O516        C531   1.300       .  A
O517       Zr523   2.394       .  S
O517        C534   1.283       .  A
O518       Zr523   2.466       .  S
O518        C533   1.301       .  A
O519       Zr522   2.374       .  S
O519        C532   1.279       .  A
O520       Zr526   2.458       .  S
O520        C529   1.299       .  A
O521       Zr526   2.400       .  S
O521        C530   1.283       .  A
Zr522       O528   2.336       .  S
Zr522       O540   2.367       .  S
Zr523       O527   2.312       .  S
Zr523       O538   2.348       .  S
Zr524       O528   2.356       .  S
Zr524       O538   2.350       .  S
Zr525       O527   2.332       .  S
Zr525       O540   2.310       .  S
Zr526       O527   2.353       .  S
Zr526       O528   2.322       .  S
Zr526       O540   2.345       .  S
Zr526       O538   2.345       .  S
H537        O538   0.966       .  S
H539        O540   0.962       .  S
O541       Zr577   2.495       .  S
O541        C552   1.308       .  A
O542       Zr576   2.471       .  S
O542        C553   1.296       .  A
O543       Zr549   2.462       .  S
O543        C554   1.294       .  A
O544       Zr549   2.496       .  S
O544        C555   1.308       .  A
O545       Zr579   2.392       .  S
O545        C555   1.282       .  A
O546       Zr578   2.459       .  S
O546        C554   1.300       .  A
O547       Zr549   2.462       .  S
O547        C553   1.300       .  A
O548       Zr549   2.394       .  S
O548        C552   1.283       .  A
Zr549       O550   2.317       .  S
Zr549       O551   2.352       .  S
Zr549       O559   2.347       .  S
Zr549       O557   2.346       .  S
O550       Zr576   2.332       .  S
O550       Zr579   2.355       .  S
O551       Zr577   2.313       .  S
O551       Zr578   2.330       .  S
H556        O557   0.962       .  S
O557       Zr576   2.366       .  S
O557       Zr578   2.310       .  S
H558        O559   0.965       .  S
O559       Zr577   2.345       .  S
O559       Zr579   2.345       .  S
O560       Zr576   2.512       .  S
O560        C583   1.311       .  A
O561       Zr577   2.458       .  S
O561        C584   1.293       .  A
O562       Zr578   2.514       .  S
O562        C585   1.312       .  A
O563       Zr579   2.453       .  S
O563        C586   1.292       .  A
O564       Zr579   2.494       .  S
O564        C587   1.307       .  A
O565       Zr578   2.463       .  S
O565        C588   1.295       .  A
O566       Zr580   2.512       .  S
O566        C589   1.311       .  A
O567       Zr580   2.476       .  S
O567        C590   1.297       .  A
O568       Zr578   2.378       .  S
O568        C589   1.280       .  A
O569       Zr579   2.458       .  S
O569        C590   1.299       .  A
O570       Zr576   2.371       .  S
O570        C585   1.278       .  A
O571       Zr577   2.463       .  S
O571        C588   1.300       .  A
O572       Zr577   2.394       .  S
O572        C587   1.283       .  A
O573       Zr576   2.457       .  S
O573        C586   1.300       .  A
O574       Zr580   2.373       .  S
O574        C583   1.279       .  A
O575       Zr580   2.452       .  S
O575        C584   1.298       .  A
Zr576       O582   2.337       .  S
Zr576       O594   2.313       .  S
Zr577       O581   2.355       .  S
Zr577       O592   2.343       .  S
Zr578       O582   2.336       .  S
Zr578       O592   2.365       .  S
Zr579       O581   2.315       .  S
Zr579       O594   2.345       .  S
Zr580       O581   2.332       .  S
Zr580       O582   2.338       .  S
Zr580       O594   2.364       .  S
Zr580       O592   2.316       .  S
H591        O592   0.963       .  S
H593        O594   0.963       .  S
O595      Zr3331   2.497   1_445  S
O595        C606   1.308       .  A
O596      Zr1530   2.461   1_545  S
O596        C607   1.293       .  A
O597       Zr603   2.518   1_565  S
O597       C1508   1.312       .  A
O598       Zr603   2.472       .  S
O598        C609   1.296       .  A
O599       Zr633   2.462       .  S
O599        C609   1.300       .  A
O600       Zr632   2.382       .  S
O600        C608   1.281       .  A
O601       Zr603   2.460       .  S
O601        C607   1.300       .  A
O602       Zr603   2.378       .  S
O602        C606   1.280       .  A
Zr603       O604   2.333       .  S
Zr603       O613   2.367       .  S
Zr603      O1505   2.338   1_545  S
Zr603      O1511   2.313   1_545  S
O604       Zr633   2.314       .  S
O604      Zr1530   2.354   1_545  S
O605       Zr632   2.334       .  S
O605      Zr1503   2.338       .  S
O605      Zr2431   2.339   1_455  S
C608       O1497   1.312       .  A
H610        O611   0.962       .  S
O611       Zr630   2.344       .  S
O611       Zr632   2.365       .  S
O611      Zr1503   2.313       .  S
H612        O613   0.963       .  S
O613       Zr633   2.346       .  S
O613      Zr3331   2.316   1_445  S
O614       Zr630   2.497       .  S
O614        C637   1.308       .  A
O615       Zr631   2.470       .  S
O615        C638   1.295       .  A
O616       Zr632   2.469       .  S
O616        C639   1.296       .  A
O617       Zr633   2.504       .  S
O617        C640   1.309       .  A
O618      Zr2433   2.456       .  S
O618        C641   1.293       .  A
O619      Zr2432   2.516       .  S
O619        C642   1.312       .  A
O620       Zr634   2.457       .  S
O620        C643   1.293       .  A
O621       Zr634   2.503       .  S
O621       C1544   1.309       .  A
O622      Zr2432   2.459       .  S
O622        C643   1.300       .  A
O623      Zr2433   2.393       .  S
O623        C644   1.283       .  A
O624       Zr630   2.464       .  S
O624        C639   1.300       .  A
O625       Zr631   2.375       .  S
O625        C642   1.279       .  A
O626      Zr1531   2.457   1_545  S
O626        C641   1.300       .  A
O627      Zr1530   2.390   1_545  S
O627        C640   1.282       .  A
O628      Zr2434   2.390       .  S
O628        C637   1.282   1_655  A
O629       Zr634   2.466       .  S
O629        C638   1.301       .  A
Zr630      O1496   2.461       .  S
Zr630      O1527   2.390       .  S
Zr630       O636   2.315       .  S
Zr630       O648   2.347       .  S
Zr630      O1504   2.354       .  S
Zr631      O3295   2.497       .  S
Zr631      O1526   2.457       .  S
Zr631       O635   2.329       .  S
Zr631       O646   2.362       .  S
Zr631      O2405   2.339       .  S
Zr631      O3313   2.316       .  S
Zr632      O2419   2.516   1_455  S
Zr632      O2422   2.459   1_455  S
Zr632       O636   2.334       .  S
Zr632      O2446   2.315   1_455  S
Zr633      O2418   2.456   1_455  S
Zr633      O2423   2.393       .  S
Zr633      O3335   2.357   1_445  S
Zr633      O1548   2.343   1_545  S
Zr634      O2428   2.390       .  S
Zr634       O635   2.312       .  S
Zr634       O646   2.345       .  S
Zr634      O2436   2.357       .  S
Zr634      O2448   2.347       .  S
O635      Zr3333   2.357       .  S
O636      Zr2434   2.357   1_455  S
C637       C1875   1.479   1_455  S
C644       O1521   1.309   1_545  A
H645        O646   0.963       .  S
O646      Zr2432   2.315       .  S
H647       O1548   0.965       .  S
O648      Zr1533   2.343       .  S
O648      Zr2434   2.347   1_455  S
O648       H1547   0.965       .  S
C649        C650   1.396       .  A
C649        C654   1.395       .  A
C649        H656   1.084       .  S
C650        C651   1.415       .  A
C651        C652   1.395       .  A
C651        N658   1.444       .  S
C652        C653   1.396       .  A
C652        H657   1.084       .  S
C653        C654   1.415       .  A
C654        N655   1.445       .  S
N655        O659   1.263       .  A
N655        O660   1.262       .  A
N658        O661   1.262       .  A
N658        O662   1.263       .  A
C663        C664   1.394       .  A
C663        C668   1.393       .  A
C663        H670   1.084       .  S
C664        C665   1.415       .  A
C665        C666   1.393   1_455  A
C665        N672   1.442       .  S
C666        C667   1.394   1_655  A
C666       H2471   1.084       .  S
C667       C2093   1.452   1_455  S
C667        C668   1.416       .  A
C668        N669   1.442   1_554  S
N669        O673   1.263       .  A
N669        O674   1.263       .  A
H671       C2466   1.084       .  S
N672        O675   1.263       .  A
N672        O676   1.263   1_455  A
C677        C678   1.396       .  A
C677        C682   1.394       .  A
C677        H684   1.084       .  S
C678        C679   1.417       .  A
C679        C680   1.394       .  A
C679        N686   1.447       .  S
C680        C681   1.396       .  A
C680        H685   1.084       .  S
C681       C2082   1.449       .  S
C681        C682   1.416       .  A
C682       N2483   1.446       .  S
N683       C2482   1.446       .  S
N683        O688   1.262   1_655  A
N683       O2487   1.263       .  A
N686        O689   1.262       .  A
N686        O690   1.263       .  A
O687       N2483   1.263       .  A
C691        C696   1.389       .  A
C691       C1592   1.394       .  A
C691        H698   1.084       .  S
C692        C693   1.418   1_545  A
C692       C1591   1.394       .  A
C693       C1594   1.392       .  A
C693        N700   1.440       .  S
C694        C695   1.395       .  A
C694       C1593   1.392       .  A
C694        H699   1.084       .  S
C695        C696   1.418       .  A
C696        N697   1.439       .  S
N697        O701   1.263       .  A
N697        O702   1.263       .  A
N700        O703   1.263       .  A
N700        O704   1.263       .  A
C705        C706   1.398       .  A
C705        C710   1.398       .  A
C705        H712   1.084       .  S
C706        C707   1.416       .  A
C707        C708   1.394       .  A
C707        N714   1.443       .  S
C708        C709   1.397       .  A
C708        H713   1.085       .  S
C709       C1146   1.455   1_545  S
C709        C710   1.418       .  A
C710        N711   1.446       .  S
N711        O715   1.263       .  A
N711       O1616   1.260   1_545  A
N714        O717   1.260       .  A
N714        O718   1.263       .  A
O716       N1611   1.260       .  A
C719        C720   1.396       .  A
C719        C724   1.394       .  A
C719        H726   1.084       .  S
C720        C721   1.414       .  A
C721        C722   1.393       .  A
C721        N728   1.444       .  S
C722        C723   1.395       .  A
C722        H727   1.084       .  S
C723        C724   1.414       .  A
C724        N725   1.444       .  S
N725        O729   1.263       .  A
N725        O730   1.262       .  A
N728        O731   1.262       .  A
N728        O732   1.263       .  A
C733        C734   1.406       .  A
C733        C738   1.394       .  A
C733        H740   1.084       .  S
C734        C735   1.409       .  A
C735        C736   1.394       .  A
C735        N742   1.443       .  S
C736        C737   1.404       .  A
C736        H741   1.085       .  S
C737       C1110   1.454   1_545  S
C737        C738   1.406       .  A
C738        N739   1.443       .  S
N739        O743   1.263       .  A
N739       O1644   1.262   1_545  A
N742        O745   1.261       .  A
N742        O746   1.263       .  A
O744       N1639   1.262       .  A
C747        C748   1.408       .  A
C747        C752   1.391       .  A
C747        H754   1.084       .  S
C748        C749   1.405       .  A
C749        C750   1.392       .  A
C749        N756   1.440       .  S
C750        C751   1.408       .  A
C750        H755   1.084       .  S
C751        C752   1.406       .  A
C752        N753   1.440       .  S
N753        O757   1.263       .  A
N753        O758   1.262       .  A
N756        O759   1.263       .  A
N756        O760   1.263       .  A
C761        C762   1.394       .  A
C761       C1666   1.395   1_545  A
C761        H768   1.084       .  S
C762       C1663   1.411   1_545  A
C763        C764   1.389       .  A
C763       C1662   1.411       .  A
C763        N770   1.436   1_554  S
C764        C765   1.394       .  A
C764        H769   1.084       .  S
C765        C766   1.416       .  A
C766       C1661   1.395       .  A
C766        N767   1.442       .  S
N767        O772   1.262       .  A
N767       O1671   1.263       .  A
N770        O774   1.262       .  A
N770       O1673   1.262       .  A
O771       N1667   1.263       .  A
O773       N1670   1.262       .  A
C775        C776   1.394       .  A
C775        C780   1.395       .  A
C775        H782   1.084       .  S
C776        C777   1.413       .  A
C777        C778   1.392       .  A
C777        N784   1.443       .  S
C778        C779   1.395       .  A
C778        H783   1.084       .  S
C779        C780   1.418       .  A
C780        N781   1.447       .  S
N781        O785   1.263       .  A
N781        O786   1.262       .  A
N784        O787   1.263       .  A
N784        O788   1.262       .  A
C789        C790   1.409       .  A
C789        C794   1.390       .  A
C789        H796   1.084       .  S
C790        C791   1.407       .  A
C791        C792   1.393       .  A
C791        N798   1.439       .  S
C792        C793   1.408       .  A
C792        H797   1.084       .  S
C793        C794   1.406       .  A
C794        N795   1.440       .  S
N795        O799   1.262       .  A
N795       O2600   1.263       .  A
N798        O801   1.263       .  A
N798        O802   1.262       .  A
O800       N2595   1.263       .  A
C803        C804   1.395       .  A
C803        C808   1.396       .  A
C803        H810   1.084       .  S
C804        C805   1.416       .  A
C805        C806   1.390       .  A
C805        N812   1.441       .  S
C806        C807   1.393       .  A
C806        H811   1.084       .  S
C807        C808   1.416       .  A
C808        N809   1.442       .  S
N809        O813   1.263       .  A
N809        O814   1.263       .  A
N812        O815   1.263       .  A
N812        O816   1.263       .  A
C817        C818   1.403       .  A
C817        C822   1.396       .  A
C817        H824   1.085       .  S
C818        C819   1.413       .  A
C819        C820   1.396       .  A
C819        N826   1.449       .  S
C820        C821   1.401       .  A
C820        H825   1.084       .  S
C821        C822   1.408       .  A
C822        N823   1.444       .  S
N823        O827   1.263       .  A
N823        O828   1.263       .  A
N826        O829   1.262       .  A
N826        O830   1.263   1_545  A
C831        C832   1.409       .  A
C831        C836   1.393       .  A
C831        H838   1.084       .  S
C832        C833   1.405       .  A
C833        C834   1.392       .  A
C833        N840   1.440       .  S
C834        C835   1.409       .  A
C834        H839   1.084       .  S
C835        C836   1.406       .  A
C836        N837   1.440       .  S
N837        O841   1.263       .  A
N837        O842   1.262       .  A
N840        O843   1.263       .  A
N840        O844   1.263       .  A
C845        C846   1.393       .  A
C845        C850   1.391       .  A
C845        H852   1.084   1_554  S
C846        C847   1.416       .  A
C847        C848   1.393       .  A
C847        N854   1.441       .  S
C848        C849   1.394       .  A
C848        H853   1.084       .  S
C849        C850   1.416       .  A
C850        N851   1.441   1_554  S
N851        O855   1.263       .  A
N851        O856   1.263       .  A
N854        O857   1.263       .  A
N854        O858   1.263       .  A
C859       C2660   1.395       .  A
C859       C2664   1.392       .  A
C859        H866   1.084       .  S
C860       C1839   1.449   1_455  S
C860        C861   1.414       .  A
C860       C2659   1.395   1_455  A
C861        C862   1.395       .  A
C861        N868   1.443       .  S
C862        C863   1.396       .  A
C862        H867   1.084       .  S
C863        C864   1.414       .  A
C864       C2659   1.392   1_455  A
C864        N865   1.443       .  S
N865        O870   1.262       .  A
N865       O2669   1.263   1_455  A
N868        O871   1.262       .  A
N868        O872   1.263       .  A
O869       N2665   1.263       .  A
C873        C874   1.396       .  A
C873        C878   1.394       .  A
C873        H880   1.084       .  S
C874        C875   1.415       .  A
C875        C876   1.395       .  A
C875        N882   1.445       .  S
C876        C877   1.396       .  A
C876        H881   1.084       .  S
C877        C878   1.414       .  A
C878        N879   1.445       .  S
N879        O883   1.263       .  A
N879        O884   1.262       .  A
N882        O885   1.262       .  A
N882        O886   1.263       .  A
C887        C888   1.408       .  A
C887        C892   1.390       .  A
C887        H894   1.084       .  S
C888        C889   1.405       .  A
C889        C890   1.392       .  A
C889        N896   1.441       .  S
C890        C891   1.409       .  A
C890        H895   1.084       .  S
C891       C1812   1.461       .  S
C891        C892   1.405       .  A
C892        N893   1.440       .  S
N893        O897   1.263       .  A
N893       O2698   1.263       .  A
N896        O899   1.263       .  A
N896        O900   1.263       .  A
O898       N2693   1.263   1_455  A
C901       C1398   1.496       .  S
C902        C903   1.393       .  A
C903       C1788   1.460       .  S
C903        C904   1.381       .  A
C904        C905   1.385       .  A
C904        H908   1.086       .  S
C905       C1236   1.476       .  S
C905        C906   1.421       .  A
C906        H909   1.082       .  S
C910       C1429   1.496       .  S
C910        C911   1.408       .  A
C910        C915   1.423       .  A
C911        C912   1.394       .  A
C911        H916   1.083       .  S
C912       C3591   1.461   1_455  S
C912        C913   1.381       .  A
C913        C914   1.385       .  A
C913        H917   1.085   1_455  S
C914       C1506   1.476       .  S
C914        C915   1.423       .  A
C915        H918   1.083       .  S
C919        C920   1.408       .  A
C919        C924   1.429       .  A
C920        C921   1.389       .  A
C920        H925   1.084       .  S
C921       C1774   1.449       .  S
C921        C922   1.378       .  A
C922        C923   1.388       .  A
C922        H926   1.085       .  S
C923       C1434   1.486       .  S
C923        C924   1.429       .  A
C924        H927   1.082       .  S
C928       C1274   1.504       .  S
C928        C929   1.408       .  A
C928        C933   1.429       .  A
C929        C930   1.390       .  A
C929        H934   1.084       .  S
C930       C1777   1.449       .  S
C930        C931   1.380       .  A
C931        C932   1.385       .  A
C931        H935   1.085       .  S
C932       C1290   1.487       .  S
C932        C933   1.431       .  A
C933        H936   1.083       .  S
C937       C1543   1.499       .  S
C937        C938   1.407       .  A
C937        C942   1.429       .  A
C938        C939   1.387       .  A
C938       H2743   1.084       .  S
C939       C3560   1.449       .  S
C939        C940   1.378       .  A
C940        C941   1.389       .  A
C940        H944   1.085       .  S
C941       C1344   1.486       .  S
C941        C942   1.428       .  A
C942        H945   1.083       .  S
H943       C2738   1.084       .  S
C946       C1509   1.503       .  S
C946        C947   1.409       .  A
C946        C951   1.427       .  A
C947        C948   1.391       .  A
C947        H952   1.084       .  S
C948       C1763   1.449       .  S
C948        C949   1.381       .  A
C949        C950   1.385       .  A
C949        H953   1.085       .  S
C950       C1432   1.484       .  S
C950        C951   1.430       .  A
C951        H954   1.083       .  S
C955       C1293   1.503       .  S
C955        C956   1.428   1_554  A
C955        C960   1.408       .  A
C956        C957   1.429       .  A
C956        H961   1.083       .  S
C957       C1267   1.483       .  S
C957        C958   1.385       .  A
C958        C959   1.380   1_556  A
C958        H962   1.085       .  S
C959       C1749   1.454       .  S
C959        C960   1.390       .  A
C960        H963   1.084       .  S
C964       C1327   1.499       .  S
C964        C965   1.407       .  A
C964        C969   1.429       .  A
C965        C966   1.388       .  A
C965        H970   1.084       .  S
C966       C1746   1.453       .  S
C966        C967   1.378       .  A
C967        C968   1.388       .  A
C967        H971   1.085       .  S
C968       C1452   1.483       .  S
C968        C969   1.428       .  A
C969        H972   1.083       .  S
C973       C1346   1.499       .  S
C973        C974   1.426       .  A
C973        C978   1.409       .  A
C974        C975   1.423       .  A
C974        H979   1.083       .  S
C975       C3337   1.479       .  S
C975       C2776   1.386       .  A
C976       C2775   1.386   1_455  A
C976        C977   1.380       .  A
C976        H980   1.086       .  S
C977       C1732   1.463       .  S
C977       C2778   1.394       .  A
C978       C2777   1.394       .  A
C978       H2781   1.083       .  S
H981       C2778   1.083       .  S
C982        C983   1.410       .  A
C982        C987   1.425       .  A
C983        C984   1.395       .  A
C983        H988   1.083       .  S
C984       C1735   1.464       .  S
C984        C985   1.382       .  A
C985        C986   1.384       .  A
C985        H989   1.086       .  S
C986       C1483   1.480       .  S
C986        C987   1.426       .  A
C987        H990   1.083       .  S
C991       C1454   1.502       .  S
C991        C992   1.408       .  A
C991        C996   1.429       .  A
C992        C993   1.389       .  A
C992        H997   1.084       .  S
C993       C1718   1.452       .  S
C993        C994   1.380       .  A
C994        C995   1.389       .  A
C994        H998   1.085       .  S
C995       C1321   1.487       .  S
C995        C996   1.429       .  A
C996        H999   1.083       .  S
C1000      C1490   1.504   1_545  S
C1001      C1002   1.392       .  A
C1002      C1721   1.452       .  S
C1002      C1003   1.383       .  A
C1003      C1004   1.386       .  A
C1003      H1007   1.086       .  S
C1004      C1375   1.483       .  S
C1004      C1005   1.429       .  A
C1005      H1008   1.083       .  S
C1009      C3068   1.499       .  S
C1009      C1010   1.428       .  A
C1009      C1014   1.407       .  A
C1010      C1011   1.429       .  A
C1010      H1015   1.083       .  S
C1011      C1430   1.487       .  S
C1011      C1012   1.390       .  A
C1012      C1013   1.379       .  A
C1012      H1016   1.085       .  S
C1013      C1707   1.453       .  S
C1013      C1014   1.388       .  A
C1014      H1017   1.084       .  S
C1018      C1237   1.502       .  S
C1018      C1019   1.410       .  A
C1018      C1023   1.426       .  A
C1019      H1024   1.083       .  S
C1020      C1704   1.455       .  S
C1020      C1021   1.381       .  A
C1021      H1025   1.086       .  S
C1022      C1023   1.427       .  A
C1023      H1026   1.083       .  S
C1027      C1400   1.504       .  S
C1027      C1028   1.409       .  A
C1027      C1032   1.427       .  A
C1028      C1029   1.396       .  A
C1028      H1033   1.083       .  S
C1029      C1690   1.465       .  S
C1029      C1030   1.383       .  A
C1030      C1031   1.384       .  A
C1030      H1034   1.086       .  S
C1031      C1542   1.483       .  S
C1031      C1032   1.427       .  A
C1032      H1035   1.083       .  S
C1036      C1436   1.500       .  S
C1036      C1037   1.427   1_455  A
C1036      C1041   1.407   1_455  A
C1037      C2838   1.425       .  A
C1037      H1042   1.083   1_655  S
C1038      C1271   1.481       .  S
C1038      C2837   1.425       .  A
C1038      C1039   1.387       .  A
C1039      C1040   1.381       .  A
C1039      H1043   1.086       .  S
C1040      C1693   1.463       .  S
C1040      C2841   1.393       .  A
C1041      C2840   1.393       .  A
C1041      H1044   1.083   1_655  S
C1045      C1507   1.502       .  S
C1045      C1046   1.430       .  A
C1045      C1050   1.407       .  A
C1046      C1047   1.430       .  A
C1046      H1051   1.082       .  S
C1047      C1347   1.485       .  S
C1047      C1048   1.388       .  A
C1048      C1049   1.378       .  A
C1048      H1052   1.086       .  S
C1049      C1679   1.447       .  S
C1049      C1050   1.387       .  A
C1050      H1053   1.084       .  S
C1054      C1538   1.505       .  S
C1054      C1055   1.429       .  A
C1054      C1059   1.407       .  A
C1055      C1056   1.432       .  A
C1055      H1060   1.083       .  S
C1056      C1399   1.487       .  S
C1056      C1057   1.386       .  A
C1057      C1058   1.379       .  A
C1057      H1061   1.085       .  S
C1058      C1676   1.447       .  S
C1058      C1059   1.389       .  A
C1059      H1062   1.084       .  S
C1063      C1323   1.501       .  S
C1063      C1064   1.409       .  A
C1063      C1068   1.427   1_554  A
C1064      C1065   1.390       .  A
C1064      H1069   1.084       .  S
C1065      C1662   1.448       .  S
C1065      C1066   1.378   1_554  A
C1066      C1067   1.385       .  A
C1066      H1070   1.086       .  S
C1067      C1269   1.481       .  S
C1067      C1068   1.428       .  A
C1068      H1071   1.083       .  S
C1072      C1325   1.499       .  S
C1072      C1073   1.407       .  A
C1072      C1077   1.428       .  A
C1073      C1074   1.387       .  A
C1073      H1078   1.084       .  S
C1074      C1665   1.447       .  S
C1074      C1075   1.377       .  A
C1075      C1076   1.389       .  A
C1075      H1079   1.085       .  S
C1076      C1487   1.484       .  S
C1076      C1077   1.428       .  A
C1077      H1080   1.083       .  S
C1081      C1378   1.502       .  S
C1081      C1082   1.408       .  A
C1081      C1086   1.429       .  A
C1082      C1083   1.394       .  A
C1082      H1087   1.083       .  S
C1083      C1648   1.461       .  S
C1083      C1084   1.380       .  A
C1084      C1085   1.385       .  A
C1084      H1088   1.086       .  S
C1085      C1540   1.482       .  S
C1085      C1086   1.426       .  A
C1086      H1089   1.082       .  S
C1090      C3180   1.502       .  S
C1090      C1091   1.410       .  A
C1090      C1095   1.426       .  A
C1091      C1092   1.394       .  A
C1091      H1096   1.083       .  S
C1092      C1651   1.462       .  S
C1092      C1093   1.381       .  A
C1093      C1094   1.384       .  A
C1093      H1097   1.085       .  S
C1094      C1485   1.481       .  S
C1094      C1095   1.427       .  A
C1095      H1098   1.083       .  S
C1099      C1453   1.503       .  S
C1099      C1100   1.408   1_455  A
C1099      C2904   1.426   1_455  A
C1100      C2901   1.392       .  A
C1100      H1105   1.084   1_655  S
C1101      C1634   1.457       .  S
C1101      C2900   1.392       .  A
C1101      C1102   1.383       .  A
C1102      C1103   1.387       .  A
C1102      H1106   1.085       .  S
C1103      C1381   1.484       .  S
C1103      C1104   1.429       .  A
C1104      C2899   1.426       .  A
C1104      H2907   1.083       .  S
H1107      C2904   1.083   1_455  S
C1108      C1484   1.498       .  S
C1108      C1109   1.409       .  A
C1108      C1113   1.427       .  A
C1109      C1110   1.389       .  A
C1109      H1114   1.084       .  S
C1110      C1111   1.380       .  A
C1111      C1112   1.388       .  A
C1112      C1328   1.482       .  S
C1112      C1113   1.425       .  A
C1113      H1116   1.083       .  S
C1117      C1345   1.501       .  S
C1117      C1118   1.408       .  A
C1117      C1122   1.427       .  A
C1118      C1119   1.389       .  A
C1118      H1123   1.084       .  S
C1119      C1623   1.447       .  S
C1119      C1120   1.380       .  A
C1120      C1121   1.386       .  A
C1120      H1124   1.085       .  S
C1121      C1489   1.484       .  S
C1121      C1122   1.430       .  A
C1122      H1125   1.083       .  S
C1126      C1376   1.501       .  S
C1126      C1127   1.407       .  A
C1126      C1131   1.429       .  A
C1127      H1132   1.084       .  S
C1128      C1620   1.448       .  S
C1128      C1129   1.378       .  A
C1129      H1133   1.085       .  S
C1130      C1544   1.485       .  S
C1130      C1131   1.429       .  A
C1131      H1134   1.082       .  S
C1135      C1431   1.505       .  S
C1135      C1136   1.409       .  A
C1135      C1140   1.428       .  A
C1136      C1137   1.393       .  A
C1136      H1141   1.084       .  S
C1137      C1606   1.457       .  S
C1137      C1138   1.382       .  A
C1138      C1139   1.388       .  A
C1138      H1142   1.085       .  S
C1139      C1239   1.485       .  S
C1139      C1140   1.427       .  A
C1140      H1143   1.083       .  S
C1144      C1433   1.507       .  S
C1144      C1145   1.409       .  A
C1144      C1149   1.429       .  A
C1145      C1146   1.393       .  A
C1145      H1150   1.084       .  S
C1146      C1147   1.382       .  A
C1147      C1148   1.386       .  A
C1148      C1508   1.488       .  S
C1148      C1149   1.431       .  A
C1149      H1152   1.083       .  S
C1153      C1541   1.498       .  S
C1153      C1154   1.407       .  A
C1153      C1158   1.427       .  A
C1154      C1155   1.391       .  A
C1154      H1159   1.084       .  S
C1155      C1592   1.459       .  S
C1155      C1156   1.378       .  A
C1156      C1157   1.388       .  A
C1156      H1160   1.085       .  S
C1157      C1379   1.481       .  S
C1157      C1158   1.426       .  A
C1158      H1161   1.083       .  S
C1162      C1539   1.502       .  S
C1162      C1163   1.409       .  A
C1162      C1167   1.427       .  A
C1163      C1164   1.393       .  A
C1163      H1168   1.083       .  S
C1164      C1595   1.460       .  S
C1164      C1165   1.380       .  A
C1165      C1166   1.384       .  A
C1165      H1169   1.085       .  S
C1166      C1401   1.481       .  S
C1166      C1167   1.428       .  A
C1167      H1170   1.083       .  S
C1171      C1488   1.500       .  S
C1171      C1172   1.407       .  A
C1171      C1176   1.427       .  A
C1172      C1173   1.389       .  A
C1172      H1177   1.084       .  S
C1173      C1578   1.448       .  S
C1173      C1174   1.380       .  A
C1174      C1175   1.387       .  A
C1174      H1178   1.085       .  S
C1175      C1377   1.483       .  S
C1175      C1176   1.428       .  A
C1176      H1179   1.083       .  S
C1180      C1486   1.498       .  S
C1180      C1181   1.407       .  A
C1180      C1185   1.428       .  A
C1181      C1182   1.388       .  A
C1181      H1186   1.084       .  S
C1182      C3381   1.449   1_455  S
C1182      C1183   1.378       .  A
C1183      C1184   1.389       .  A
C1183      H1187   1.085   1_455  S
C1184      C1324   1.483       .  S
C1184      C1185   1.426       .  A
C1185      H1188   1.083       .  S
C1189      C1322   1.502       .  S
C1189      C1190   1.427   1_554  A
C1189      C1194   1.409       .  A
C1190      C1191   1.429       .  A
C1190      H1195   1.083       .  S
C1191      C1273   1.484       .  S
C1191      C1192   1.385       .  A
C1192      C1193   1.380   1_556  A
C1192      H1196   1.085       .  S
C1193      C3367   1.452       .  S
C1193      C1194   1.390       .  A
C1194      H1197   1.084       .  S
C1198      C1291   1.499       .  S
C1198      C1199   1.428       .  A
C1198      C1203   1.408       .  A
C1199      C1200   1.426       .  A
C1199      H1204   1.083       .  S
C1200      C1455   1.483       .  S
C1200      C1201   1.387       .  A
C1201      C1202   1.378       .  A
C1201      H1205   1.085       .  S
C1202      C1564   1.452       .  S
C1202      C1203   1.389       .  A
C1203      H1206   1.084       .  S
C1207      C1270   1.498       .  S
C1207      C1208   1.428       .  A
C1207      C1212   1.407       .  A
C1208      C1209   1.427       .  A
C1208      H1213   1.083       .  S
C1209      C1435   1.486       .  S
C1209      C1210   1.390       .  A
C1210      C1211   1.379       .  A
C1210      H1214   1.085       .  S
C1211      C1550   1.451       .  S
C1211      C1212   1.388       .  A
C1212      H1215   1.084       .  S
C1216      C1272   1.502       .  S
C1216      C1217   1.408       .  A
C1216      C1221   1.428       .  A
C1217      C3018   1.390       .  A
C1217      H1222   1.084       .  S
C1218      C1553   1.450       .  S
C1218      C3017   1.390   1_455  A
C1218      C1219   1.381       .  A
C1219      C3020   1.388   1_455  A
C1219      H1223   1.085       .  S
C1220      C3126   1.487       .  S
C1220      C3019   1.388       .  A
C1220      C1221   1.430       .  A
C1221      H1224   1.083       .  S
O1225     Zr1261   2.497       .  S
O1225      C1236   1.308       .  A
O1226     Zr1260   2.474       .  S
O1226      C1237   1.297       .  A
O1227     Zr1233   2.464       .  S
O1227      C1238   1.294       .  A
O1228     Zr1233   2.503       .  S
O1228      C1239   1.309       .  A
O1229     Zr1263   2.393       .  S
O1229      C1239   1.283       .  A
O1230     Zr1262   2.456       .  S
O1230      C1238   1.299       .  A
O1231     Zr1233   2.457       .  S
O1231      C1237   1.299       .  A
O1232     Zr1233   2.386       .  S
O1232      C1236   1.281       .  A
Zr1233     O1234   2.317       .  S
Zr1233     O1235   2.354       .  S
Zr1233     O1243   2.344       .  S
Zr1233     O1241   2.346       .  S
O1234     Zr1260   2.332       .  S
O1234     Zr1263   2.355       .  S
O1235     Zr1261   2.315       .  S
O1235     Zr1262   2.333       .  S
H1240      O1241   0.963       .  S
O1241     Zr1260   2.364       .  S
O1241     Zr1262   2.315       .  S
H1242      O1243   0.965       .  S
O1243     Zr1261   2.345       .  S
O1243     Zr1263   2.343       .  S
O1244     Zr1260   2.512       .  S
O1244      C1267   1.311       .  A
O1245     Zr1261   2.460       .  S
O1245      C1268   1.293       .  A
O1246     Zr1262   2.513       .  S
O1246      C1269   1.311       .  A
O1247     Zr1263   2.456       .  S
O1247      C1270   1.293       .  A
O1248     Zr1263   2.499       .  S
O1248      C1271   1.309       .  A
O1249     Zr1262   2.468       .  S
O1249      C1272   1.295       .  A
O1250     Zr1264   2.510       .  S
O1250      C1273   1.311       .  A
O1251     Zr1264   2.471       .  S
O1251      C1274   1.296       .  A
O1252     Zr1262   2.379       .  S
O1252      C1273   1.280       .  A
O1253     Zr1263   2.464       .  S
O1253      C1274   1.301       .  A
O1254     Zr1260   2.373       .  S
O1254      C1269   1.279       .  A
O1255     Zr1261   2.462       .  S
O1255      C1272   1.300       .  A
O1256     Zr1261   2.391       .  S
O1256      C1271   1.282       .  A
O1257     Zr1260   2.455       .  S
O1257      C1270   1.299       .  A
O1258     Zr1264   2.378       .  S
O1258      C1267   1.280       .  A
O1259     Zr1264   2.458       .  S
O1259      C1268   1.300       .  A
Zr1260     O1266   2.338       .  S
Zr1260     O1278   2.313       .  S
Zr1261     O1265   2.354       .  S
Zr1261     O1276   2.345       .  S
Zr1262     O1266   2.337       .  S
Zr1262     O1276   2.366       .  S
Zr1263     O1265   2.314       .  S
Zr1263     O1278   2.343       .  S
Zr1264     O1265   2.332       .  S
Zr1264     O1266   2.338       .  S
Zr1264     O1278   2.365       .  S
Zr1264     O1276   2.315       .  S
C1268      C2809   1.499       .  S
H1275      O1276   0.963       .  S
H1277      O1278   0.962       .  S
O1279     Zr1315   2.518       .  S
O1279      C1290   1.312       .  A
O1280     Zr1314   2.458       .  S
O1280      C1291   1.293       .  A
O1281     Zr1287   2.512       .  S
O1281      C1292   1.311   1_565  A
O1282     Zr3087   2.468       .  S
O1282      C1293   1.295   1_556  A
O1283     Zr1317   2.464       .  S
O1283      C1293   1.301       .  A
O1284     Zr1316   2.374       .  S
O1285     Zr1287   2.457   1_554  S
O1285      C1291   1.299       .  A
O1286     Zr3087   2.379       .  S
O1286      C1290   1.280       .  A
Zr1287     O3082   2.468   1_455  S
Zr1287     O3086   2.379       .  S
Zr1287     O1288   2.333   1_556  S
Zr1287     O1289   2.339       .  S
Zr1287     O3097   2.363   1_456  S
Zr1287     O1295   2.314   1_556  S
O1288     Zr1314   2.354       .  S
O1288     Zr3117   2.315   1_455  S
O1289     Zr3115   2.338   1_455  S
H1294      O1295   0.963       .  S
O1295     Zr1314   2.347       .  S
H1296      O1297   0.962       .  S
O1297     Zr3087   2.363   1_554  S
O1297     Zr1315   2.314   1_554  S
O1297     Zr1317   2.345       .  S
O1298      C1321   1.308       .  A
O1299      C1322   1.296   1_556  A
O1300     Zr1316   2.470       .  S
O1300      C1323   1.296   1_556  A
O1301     Zr1317   2.495       .  S
O1301      C3124   1.307       .  A
O1302     Zr1317   2.457       .  S
O1302      C1325   1.293       .  A
O1303     Zr1316   2.509       .  S
O1303      C1326   1.310       .  A
O1304     Zr1318   2.455       .  S
O1304      C1327   1.292       .  A
O1305     Zr3118   2.493       .  S
O1306     Zr1316   2.457   1_554  S
O1306      C1327   1.300       .  A
O1307     Zr1317   2.395       .  S
O1307      C1328   1.283       .  A
O1308      C1323   1.300       .  A
O1309      C3126   1.282       .  A
O1310     Zr1315   2.458   1_554  S
O1310      C1325   1.300       .  A
O1311     Zr1314   2.395       .  S
O1311      C1324   1.283       .  A
O1312     Zr1318   2.401       .  S
O1312      C1321   1.284       .  A
O1313     Zr3118   2.463       .  S
O1313      C1322   1.300       .  A
Zr1314     O1332   2.345       .  S
Zr1315     O3089   2.338       .  S
Zr1315     O1319   2.336   1_556  S
Zr1315     O2230   2.366   1_566  S
Zr1316     O1320   2.331   1_556  S
Zr1316     O1330   2.311   1_556  S
Zr1317     O3088   2.315       .  S
Zr1317     O1319   2.354       .  S
Zr1317     O3132   2.347       .  S
Zr1318     O3105   2.493   1_455  S
Zr1318     O3113   2.463   1_455  S
Zr1318     O2219   2.317   1_455  S
Zr1318     O1320   2.354       .  S
Zr1318     O1330   2.345       .  S
O1319     Zr2218   2.317   1_565  S
C1324      O3101   1.307       .  A
C1326      C3020   1.487   1_455  S
C1326      O3109   1.282   1_455  A
H1329      O1330   0.962       .  S
O1330     Zr2215   2.366   1_454  S
H1331      O1332   0.965       .  S
O1332     Zr3117   2.347   1_455  S
O1333     Zr1369   2.496       .  S
O1333      C1344   1.308       .  A
O1334     Zr1368   2.466       .  S
O1334      C1345   1.295       .  A
O1335     Zr1341   2.457       .  S
O1335      C1346   1.293       .  A
O1336     Zr1341   2.504       .  S
O1336      C1347   1.309       .  A
O1337     Zr1371   2.392       .  S
O1337      C1347   1.282       .  A
O1338     Zr1370   2.457       .  S
O1338      C1346   1.299       .  A
O1339     Zr1341   2.463       .  S
O1339      C1345   1.300       .  A
O1340     Zr1341   2.397       .  S
O1340      C1344   1.283       .  A
Zr1341     O1342   2.315       .  S
Zr1341     O1343   2.356       .  S
Zr1341     O1351   2.343       .  S
Zr1341     O1349   2.347       .  S
O1342     Zr1368   2.334       .  S
O1342     Zr1371   2.353       .  S
O1343     Zr1369   2.315       .  S
O1343     Zr1370   2.332       .  S
H1348      O1349   0.962       .  S
O1349     Zr1368   2.367       .  S
O1349     Zr1370   2.315       .  S
H1350      O1351   0.965       .  S
O1351     Zr1369   2.347       .  S
O1351     Zr1371   2.346       .  S
O1352     Zr1368   2.520       .  S
O1352      C1375   1.312       .  A
O1353     Zr1369   2.457       .  S
O1353      C1376   1.293       .  A
O1354     Zr1370   2.508       .  S
O1354      C1377   1.310       .  A
O1355     Zr1371   2.458       .  S
O1355      C1378   1.293       .  A
O1356     Zr1371   2.495       .  S
O1356      C1379   1.308       .  A
O1357     Zr1370   2.470       .  S
O1357      C1380   1.296       .  A
O1358     Zr1372   2.515       .  S
O1358      C1381   1.311       .  A
O1359     Zr1372   2.468       .  S
O1359      C1382   1.296       .  A
O1360     Zr1370   2.378       .  S
O1360      C1381   1.280       .  A
O1361     Zr1371   2.459       .  S
O1361      C1382   1.299       .  A
O1362     Zr1368   2.382       .  S
O1362      C1377   1.281       .  A
O1363     Zr1369   2.462       .  S
O1363      C1380   1.300       .  A
O1364     Zr1369   2.391       .  S
O1364      C1379   1.282       .  A
O1365     Zr1368   2.464       .  S
O1365      C1378   1.301       .  A
O1366     Zr1372   2.373       .  S
O1366      C1375   1.279       .  A
O1367     Zr1372   2.459       .  S
O1367      C1376   1.300       .  A
Zr1368     O1374   2.338       .  S
Zr1368     O1386   2.315       .  S
Zr1369     O1373   2.356       .  S
Zr1369     O1384   2.345       .  S
Zr1370     O1374   2.337       .  S
Zr1370     O1384   2.363       .  S
Zr1371     O1373   2.316       .  S
Zr1371     O1386   2.347       .  S
Zr1372     O1373   2.332       .  S
Zr1372     O1374   2.336       .  S
Zr1372     O1386   2.365       .  S
Zr1372     O1384   2.312       .  S
C1380      C2890   1.502       .  S
H1383      O1384   0.962       .  S
H1385      O1386   0.963       .  S
O1387     Zr1423   2.449       .  S
O1387      C1398   1.292       .  A
O1388     Zr1422   2.520       .  S
O1388      C1399   1.313       .  A
O1389     Zr1395   2.466       .  S
O1389      C1400   1.295       .  A
O1390     Zr1395   2.515       .  S
O1390      C1401   1.312       .  A
O1391     Zr1425   2.372       .  S
O1391      C1401   1.278       .  A
O1392     Zr1424   2.470       .  S
O1392      C1400   1.302       .  A
O1393     Zr1395   2.377       .  S
O1393      C1399   1.279       .  A
O1394     Zr1395   2.456       .  S
O1394      C1398   1.299       .  A
Zr1395     O1396   2.336       .  S
Zr1395     O1397   2.331       .  S
Zr1395     O1405   2.315       .  S
Zr1395     O1403   2.363       .  S
O1396     Zr1422   2.337       .  S
O1396     Zr1425   2.341       .  S
O1397     Zr1423   2.354       .  S
O1397     Zr1424   2.319       .  S
H1402      O1403   0.962       .  S
O1403     Zr1422   2.308       .  S
O1403     Zr1424   2.345       .  S
H1404      O1405   0.963       .  S
O1405     Zr1423   2.346       .  S
O1405     Zr1425   2.366       .  S
O1406     Zr1422   2.464       .  S
O1406      C1429   1.295       .  A
O1407     Zr1423   2.492       .  S
O1407      C1430   1.307       .  A
O1408     Zr1424   2.463       .  S
O1408      C1431   1.295       .  A
O1409     Zr1425   2.519       .  S
O1409      C1432   1.312       .  A
O1410     Zr1425   2.474       .  S
O1410      C1433   1.297       .  A
O1411     Zr1424   2.500       .  S
O1411      C1434   1.309       .  A
O1412     Zr1426   2.491       .  S
O1412      C1435   1.306       .  A
O1413     Zr1426   2.455       .  S
O1413      C1436   1.293       .  A
O1414     Zr1424   2.402       .  S
O1414      C1435   1.284       .  A
O1415     Zr1425   2.461       .  S
O1415      C1436   1.300       .  A
O1416     Zr1422   2.461       .  S
O1416      C1431   1.300       .  A
O1417     Zr1423   2.394       .  S
O1417      C1434   1.283       .  A
O1418     Zr1423   2.466       .  S
O1418      C1433   1.301       .  A
O1419     Zr1422   2.374       .  S
O1419      C1432   1.279       .  A
O1420     Zr1426   2.458       .  S
O1420      C1429   1.299       .  A
O1421     Zr1426   2.400       .  S
O1421      C1430   1.283       .  A
Zr1422     O1428   2.336       .  S
Zr1422     O1440   2.367       .  S
Zr1423     O1427   2.312       .  S
Zr1423     O1438   2.348       .  S
Zr1424     O1428   2.356       .  S
Zr1424     O1438   2.350       .  S
Zr1425     O1427   2.332       .  S
Zr1425     O1440   2.310       .  S
Zr1426     O1427   2.353       .  S
Zr1426     O1428   2.322       .  S
Zr1426     O1440   2.345       .  S
Zr1426     O1438   2.345       .  S
H1437      O1438   0.966       .  S
H1439      O1440   0.962       .  S
O1441     Zr1477   2.495       .  S
O1441      C1452   1.308       .  A
O1442     Zr1476   2.471       .  S
O1442      C1453   1.296       .  A
O1443     Zr1449   2.462       .  S
O1443      C1454   1.294       .  A
O1444     Zr1449   2.496       .  S
O1444      C1455   1.308       .  A
O1445     Zr1479   2.392       .  S
O1445      C1455   1.282       .  A
O1446     Zr1478   2.459       .  S
O1446      C1454   1.300       .  A
O1447     Zr1449   2.462       .  S
O1447      C1453   1.300       .  A
O1448     Zr1449   2.394       .  S
O1448      C1452   1.283       .  A
Zr1449     O1450   2.317       .  S
Zr1449     O1451   2.352       .  S
Zr1449     O1459   2.347       .  S
Zr1449     O1457   2.346       .  S
O1450     Zr1476   2.332       .  S
O1450     Zr1479   2.355       .  S
O1451     Zr1477   2.313       .  S
O1451     Zr1478   2.330       .  S
H1456      O1457   0.962       .  S
O1457     Zr1476   2.366       .  S
O1457     Zr1478   2.310       .  S
H1458      O1459   0.965       .  S
O1459     Zr1477   2.345       .  S
O1459     Zr1479   2.345       .  S
O1460     Zr1476   2.512       .  S
O1460      C1483   1.311       .  A
O1461     Zr1477   2.458       .  S
O1461      C1484   1.293       .  A
O1462     Zr1478   2.514       .  S
O1462      C1485   1.312       .  A
O1463     Zr1479   2.453       .  S
O1463      C1486   1.292       .  A
O1464     Zr1479   2.494       .  S
O1464      C1487   1.307       .  A
O1465     Zr1478   2.463       .  S
O1465      C1488   1.295       .  A
O1466     Zr1480   2.512       .  S
O1466      C1489   1.311       .  A
O1467     Zr1480   2.476       .  S
O1467      C1490   1.297       .  A
O1468     Zr1478   2.378       .  S
O1468      C1489   1.280       .  A
O1469     Zr1479   2.458       .  S
O1469      C1490   1.299       .  A
O1470     Zr1476   2.371       .  S
O1470      C1485   1.278       .  A
O1471     Zr1477   2.463       .  S
O1471      C1488   1.300       .  A
O1472     Zr1477   2.394       .  S
O1472      C1487   1.283       .  A
O1473     Zr1476   2.457       .  S
O1473      C1486   1.300       .  A
O1474     Zr1480   2.373       .  S
O1474      C1483   1.279       .  A
O1475     Zr1480   2.452       .  S
O1475      C1484   1.298       .  A
Zr1476     O1482   2.337       .  S
Zr1476     O1494   2.313       .  S
Zr1477     O1481   2.355       .  S
Zr1477     O1492   2.343       .  S
Zr1478     O1482   2.336       .  S
Zr1478     O1492   2.365       .  S
Zr1479     O1481   2.315       .  S
Zr1479     O1494   2.345       .  S
Zr1480     O1481   2.332       .  S
Zr1480     O1482   2.338       .  S
Zr1480     O1494   2.364       .  S
Zr1480     O1492   2.316       .  S
H1491      O1492   0.963       .  S
H1493      O1494   0.963       .  S
O1495     Zr2431   2.497   1_455  S
O1495      C1506   1.308       .  A
O1496      C1507   1.293       .  A
O1497     Zr1503   2.518       .  S
O1498     Zr1503   2.472       .  S
O1498      C1509   1.296       .  A
O1499     Zr1533   2.462       .  S
O1499      C1509   1.300       .  A
O1500     Zr1532   2.382       .  S
O1500      C1508   1.281       .  A
O1501     Zr1503   2.460       .  S
O1501      C1507   1.300       .  A
O1502     Zr1503   2.378       .  S
O1502      C1506   1.280       .  A
Zr1503     O1504   2.333       .  S
Zr1503     O1513   2.367       .  S
O1504     Zr1533   2.314       .  S
O1505     Zr3331   2.339   1_455  S
O1505     Zr1532   2.334       .  S
H1510      O1511   0.962       .  S
O1511     Zr1530   2.344       .  S
O1511     Zr1532   2.365       .  S
H1512      O1513   0.963       .  S
O1513     Zr2431   2.316   1_455  S
O1513     Zr1533   2.346       .  S
O1514     Zr1530   2.497       .  S
O1514      C1537   1.308       .  A
O1515     Zr1531   2.470       .  S
O1515      C1538   1.295       .  A
O1516     Zr1532   2.469       .  S
O1516      C1539   1.296       .  A
O1517     Zr1533   2.504       .  S
O1517      C1540   1.309       .  A
O1518     Zr3333   2.456       .  S
O1518      C1541   1.293       .  A
O1519     Zr3332   2.516       .  S
O1519      C1542   1.312       .  A
O1520     Zr1534   2.457       .  S
O1520      C1543   1.293       .  A
O1521     Zr1534   2.503       .  S
O1522     Zr3332   2.459       .  S
O1522      C1543   1.300       .  A
O1523     Zr3333   2.393       .  S
O1523      C1544   1.283       .  A
O1524     Zr1530   2.464       .  S
O1524      C1539   1.300       .  A
O1525     Zr1531   2.375       .  S
O1525      C1542   1.279       .  A
O1526      C1541   1.300       .  A
O1527      C1540   1.282       .  A
O1528     Zr3334   2.390       .  S
O1528      C1537   1.282   1_655  A
O1529     Zr1534   2.466       .  S
O1529      C1538   1.301       .  A
Zr1530     O1536   2.315       .  S
Zr1530     O1548   2.347       .  S
Zr1531     O2395   2.497   1_565  S
Zr1531     O3305   2.339       .  S
Zr1531     O2413   2.316   1_565  S
Zr1531     O1535   2.329       .  S
Zr1531     O1546   2.362       .  S
Zr1532     O3319   2.516   1_455  S
Zr1532     O3322   2.459   1_455  S
Zr1532     O1536   2.334       .  S
Zr1532     O3346   2.315   1_455  S
Zr1533     O3318   2.456   1_455  S
Zr1533     O3323   2.393       .  S
Zr1533     O2435   2.357   1_455  S
Zr1534     O3328   2.390       .  S
Zr1534     O1535   2.312       .  S
Zr1534     O3336   2.357       .  S
Zr1534     O3348   2.347       .  S
Zr1534     O1546   2.345       .  S
O1535     Zr2433   2.357   1_565  S
O1536     Zr3334   2.357   1_455  S
C1537      C2775   1.479   1_455  S
H1545      O1546   0.963       .  S
O1546     Zr3332   2.315       .  S
O1548     Zr3334   2.347   1_455  S
C1549      C1550   1.396       .  A
C1549      C1554   1.395       .  A
C1549      H1556   1.084       .  S
C1550      C1551   1.415       .  A
C1551      C1552   1.395       .  A
C1551      N1558   1.444       .  S
C1552      C1553   1.396       .  A
C1552      H1557   1.084       .  S
C1553      C1554   1.415       .  A
C1554      N1555   1.445       .  S
N1555      O1559   1.263       .  A
N1555      O1560   1.262       .  A
N1558      O1561   1.262       .  A
N1558      O1562   1.263       .  A
C1563      C1564   1.394       .  A
C1563      C1568   1.393       .  A
C1563      H1570   1.084       .  S
C1564      C1565   1.415       .  A
C1565      C1566   1.393   1_455  A
C1565      N1572   1.442       .  S
C1566      C1567   1.394   1_655  A
C1566      H3371   1.084       .  S
C1567      C2993   1.452   1_455  S
C1567      C1568   1.416       .  A
C1568      N1569   1.442   1_554  S
N1569      O1573   1.263       .  A
N1569      O1574   1.263       .  A
H1571      C3366   1.084       .  S
N1572      O1575   1.263       .  A
N1572      O1576   1.263   1_455  A
C1577      C1578   1.396       .  A
C1577      C1582   1.394       .  A
C1577      H1584   1.084       .  S
C1578      C1579   1.417       .  A
C1579      C1580   1.394       .  A
C1579      N1586   1.447       .  S
C1580      C1581   1.396       .  A
C1580      H1585   1.084       .  S
C1581      C2982   1.449       .  S
C1581      C1582   1.416       .  A
C1582      N3383   1.446       .  S
N1583      C3382   1.446       .  S
N1583      O3387   1.263       .  A
N1583      O1588   1.262   1_655  A
N1586      O1589   1.262       .  A
N1586      O1590   1.263       .  A
O1587      N3383   1.263       .  A
C1591      C1596   1.389   1_545  A
C1591      H1598   1.084       .  S
C1592      C1593   1.418       .  A
C1593      N1600   1.440       .  S
C1594      C1595   1.395       .  A
C1594      H1599   1.084       .  S
C1595      C1596   1.418       .  A
C1596      N1597   1.439       .  S
N1597      O1601   1.263       .  A
N1597      O1602   1.263       .  A
N1600      O1603   1.263       .  A
N1600      O1604   1.263       .  A
C1605      C1606   1.398       .  A
C1605      C1610   1.398       .  A
C1605      H1612   1.084       .  S
C1606      C1607   1.416       .  A
C1607      C1608   1.394       .  A
C1607      N1614   1.443       .  S
C1608      C1609   1.397       .  A
C1608      H1613   1.085       .  S
C1609      C1610   1.418       .  A
C1610      N1611   1.446       .  S
N1611      O1615   1.263       .  A
N1614      O1617   1.260       .  A
N1614      O1618   1.263       .  A
C1619      C1620   1.396       .  A
C1619      C1624   1.394       .  A
C1619      H1626   1.084       .  S
C1620      C1621   1.414       .  A
C1621      C1622   1.393       .  A
C1621      N1628   1.444       .  S
C1622      C1623   1.395       .  A
C1622      H1627   1.084       .  S
C1623      C1624   1.414       .  A
C1624      N1625   1.444       .  S
N1625      O1629   1.263       .  A
N1625      O1630   1.262       .  A
N1628      O1631   1.262       .  A
N1628      O1632   1.263       .  A
C1633      C1634   1.406       .  A
C1633      C1638   1.394       .  A
C1633      H1640   1.084       .  S
C1634      C1635   1.409       .  A
C1635      C1636   1.394       .  A
C1635      N1642   1.443       .  S
C1636      C1637   1.404       .  A
C1636      H1641   1.085       .  S
C1637      C1638   1.406       .  A
C1638      N1639   1.443       .  S
N1639      O1643   1.263       .  A
N1642      O1645   1.261       .  A
N1642      O1646   1.263       .  A
C1647      C1648   1.408       .  A
C1647      C1652   1.391       .  A
C1647      H1654   1.084       .  S
C1648      C1649   1.405       .  A
C1649      C1650   1.392       .  A
C1649      N1656   1.440       .  S
C1650      C1651   1.408       .  A
C1650      H1655   1.084       .  S
C1651      C1652   1.406       .  A
C1652      N1653   1.440       .  S
N1653      O1657   1.263       .  A
N1653      O1658   1.262       .  A
N1656      O1659   1.263       .  A
N1656      O1660   1.263       .  A
C1661      C1662   1.394       .  A
C1661      H1668   1.084       .  S
C1663      C1664   1.389       .  A
C1663      N1670   1.436   1_554  S
C1664      C1665   1.394       .  A
C1664      H1669   1.084       .  S
C1665      C1666   1.416       .  A
C1666      N1667   1.442   1_565  S
N1667      O1672   1.262       .  A
N1670      O1674   1.262       .  A
C1675      C1676   1.394       .  A
C1675      C1680   1.395       .  A
C1675      H1682   1.084       .  S
C1676      C1677   1.413       .  A
C1677      C1678   1.392       .  A
C1677      N1684   1.443       .  S
C1678      C1679   1.395       .  A
C1678      H1683   1.084       .  S
C1679      C1680   1.418       .  A
C1680      N1681   1.447       .  S
N1681      O1685   1.263       .  A
N1681      O1686   1.262       .  A
N1684      O1687   1.263       .  A
N1684      O1688   1.262       .  A
C1689      C1690   1.409       .  A
C1689      C1694   1.390       .  A
C1689      H1696   1.084       .  S
C1690      C1691   1.407       .  A
C1691      C1692   1.393       .  A
C1691      N1698   1.439       .  S
C1692      C1693   1.408       .  A
C1692      H1697   1.084       .  S
C1693      C1694   1.406       .  A
C1694      N1695   1.440       .  S
N1695      O1699   1.262       .  A
N1695      O3500   1.263       .  A
N1698      O1701   1.263       .  A
N1698      O1702   1.262       .  A
O1700      N3495   1.263       .  A
C1703      C1704   1.395       .  A
C1703      C1708   1.396       .  A
C1703      H1710   1.084       .  S
C1704      C1705   1.416       .  A
C1705      C1706   1.390       .  A
C1705      N1712   1.441       .  S
C1706      C1707   1.393       .  A
C1706      H1711   1.084       .  S
C1707      C1708   1.416       .  A
C1708      N1709   1.442       .  S
N1709      O1713   1.263       .  A
N1709      O1714   1.263       .  A
N1712      O1715   1.263       .  A
N1712      O1716   1.263       .  A
C1717      C1718   1.403       .  A
C1717      C1722   1.396       .  A
C1717      H1724   1.085       .  S
C1718      C1719   1.413       .  A
C1719      C1720   1.396       .  A
C1719      N1726   1.449       .  S
C1720      C1721   1.401       .  A
C1720      H1725   1.084       .  S
C1721      C1722   1.408       .  A
C1722      N1723   1.444       .  S
N1723      O1727   1.263       .  A
N1723      O1728   1.263       .  A
N1726      O1729   1.262       .  A
N1726      O1730   1.263       .  A
C1731      C1732   1.409       .  A
C1731      C1736   1.393       .  A
C1731      H1738   1.084       .  S
C1732      C1733   1.405       .  A
C1733      C1734   1.392       .  A
C1733      N1740   1.440       .  S
C1734      C1735   1.409       .  A
C1734      H1739   1.084       .  S
C1735      C1736   1.406       .  A
C1736      N1737   1.440       .  S
N1737      O1741   1.263       .  A
N1737      O1742   1.262       .  A
N1740      O1743   1.263       .  A
N1740      O1744   1.263       .  A
C1745      C1746   1.393       .  A
C1745      C1750   1.391       .  A
C1745      H1752   1.084   1_554  S
C1746      C1747   1.416       .  A
C1747      C1748   1.393       .  A
C1747      N1754   1.441       .  S
C1748      C1749   1.394       .  A
C1748      H1753   1.084       .  S
C1749      C1750   1.416       .  A
C1750      N1751   1.441   1_554  S
N1751      O1755   1.263       .  A
N1751      O1756   1.263       .  A
N1754      O1757   1.263       .  A
N1754      O1758   1.263       .  A
C1759      C3560   1.395       .  A
C1759      C3564   1.392       .  A
C1759      H1766   1.084       .  S
C1760      C2739   1.449   1_455  S
C1760      C3559   1.395   1_455  A
C1760      C1761   1.414       .  A
C1761      C1762   1.395       .  A
C1761      N1768   1.443       .  S
C1762      C1763   1.396       .  A
C1762      H1767   1.084       .  S
C1763      C1764   1.414       .  A
C1764      C3559   1.392   1_455  A
C1764      N1765   1.443       .  S
N1765      O3569   1.263   1_455  A
N1765      O1770   1.262       .  A
N1768      O1771   1.262       .  A
N1768      O1772   1.263       .  A
O1769      N3565   1.263       .  A
C1773      C1774   1.396       .  A
C1773      C1778   1.394       .  A
C1773      H1780   1.084       .  S
C1774      C1775   1.415       .  A
C1775      C1776   1.395       .  A
C1775      N1782   1.445       .  S
C1776      C1777   1.396       .  A
C1776      H1781   1.084       .  S
C1777      C1778   1.414       .  A
C1778      N1779   1.445       .  S
N1779      O1783   1.263       .  A
N1779      O1784   1.262       .  A
N1782      O1785   1.262       .  A
N1782      O1786   1.263       .  A
C1787      C1788   1.408       .  A
C1787      C1792   1.390       .  A
C1787      H1794   1.084       .  S
C1788      C1789   1.405       .  A
C1789      C1790   1.392       .  A
C1789      N1796   1.441       .  S
C1790      C1791   1.409       .  A
C1790      H1795   1.084       .  S
C1791      C2712   1.461       .  S
C1791      C1792   1.405       .  A
C1792      N1793   1.440       .  S
N1793      O1797   1.263       .  A
N1793      O3598   1.263       .  A
N1796      O1799   1.263       .  A
N1796      O1800   1.263       .  A
O1798      N3593   1.263   1_455  A
C1801      C2298   1.496       .  S
C1801      C2702   1.407       .  A
C1801      C2706   1.425       .  A
C1802      C2701   1.407   1_545  A
C1802      C1803   1.393       .  A
C1802      H2707   1.083       .  S
C1803      C2688   1.460       .  S
C1803      C1804   1.381       .  A
C1804      C1805   1.385       .  A
C1804      H1808   1.086       .  S
C1805      C2136   1.476       .  S
C1805      C1806   1.421       .  A
C1806      C2701   1.425   1_545  A
C1806      H1809   1.082   1_545  S
H1807      C2702   1.083       .  S
C1810      C2329   1.496       .  S
C1810      C1811   1.408       .  A
C1810      C1815   1.423       .  A
C1811      C1812   1.394       .  A
C1811      H1816   1.083       .  S
C1812      C1813   1.381       .  A
C1813      C1814   1.385       .  A
C1813      H1817   1.085       .  S
C1814      C2406   1.476       .  S
C1814      C1815   1.423       .  A
C1815      H1818   1.083       .  S
C1819      C3038   1.501       .  S
C1819      C1820   1.408       .  A
C1819      C1824   1.429       .  A
C1820      C1821   1.389       .  A
C1820      H1825   1.084       .  S
C1821      C2674   1.449       .  S
C1821      C1822   1.378       .  A
C1822      C1823   1.388       .  A
C1822      H1826   1.085       .  S
C1823      C2334   1.486       .  S
C1823      C1824   1.429       .  A
C1824      H1827   1.082       .  S
C1828      C2174   1.504       .  S
C1828      C1829   1.408       .  A
C1828      C1833   1.429       .  A
C1829      C1830   1.390       .  A
C1829      H1834   1.084       .  S
C1830      C2677   1.449       .  S
C1830      C1831   1.380       .  A
C1831      C1832   1.385       .  A
C1831      H1835   1.085       .  S
C1832      C2190   1.487       .  S
C1832      C1833   1.431       .  A
C1833      H1836   1.083       .  S
C1837      C2443   1.499       .  S
C1837      C1838   1.407       .  A
C1837      C1842   1.429       .  A
C1838      C1839   1.387       .  A
C1839      C1840   1.378       .  A
C1840      C1841   1.389       .  A
C1840      H1844   1.085       .  S
C1841      C2244   1.486       .  S
C1841      C1842   1.428       .  A
C1842      H1845   1.083       .  S
C1846      C2409   1.503       .  S
C1846      C1847   1.409       .  A
C1846      C1851   1.427       .  A
C1847      C1848   1.391       .  A
C1847      H1852   1.084       .  S
C1848      C2663   1.449       .  S
C1848      C1849   1.381       .  A
C1849      C1850   1.385       .  A
C1849      H1853   1.085       .  S
C1850      C2332   1.484       .  S
C1850      C1851   1.430       .  A
C1851      H1854   1.083       .  S
C1855      C2193   1.503       .  S
C1855      C1856   1.428   1_554  A
C1855      C1860   1.408       .  A
C1856      C1857   1.429       .  A
C1856      H1861   1.083       .  S
C1857      C2167   1.483       .  S
C1857      C1858   1.385       .  A
C1858      C1859   1.380   1_556  A
C1858      H1862   1.085       .  S
C1859      C2649   1.454       .  S
C1859      C1860   1.390       .  A
C1860      H1863   1.084       .  S
C1864      C2227   1.499       .  S
C1864      C1865   1.407       .  A
C1864      C1869   1.429       .  A
C1865      C1866   1.388       .  A
C1865      H1870   1.084       .  S
C1866      C2646   1.453       .  S
C1866      C1867   1.378       .  A
C1867      C1868   1.388       .  A
C1867      H1871   1.085       .  S
C1868      C2352   1.483       .  S
C1868      C1869   1.428       .  A
C1869      H1872   1.083       .  S
C1873      C2246   1.499       .  S
C1873      C1874   1.426       .  A
C1873      C1878   1.409   1_655  A
C1874      C1875   1.423       .  A
C1874      H1879   1.083       .  S
C1876      C1877   1.380       .  A
C1876      H1880   1.086       .  S
C1877      C2632   1.463       .  S
C1882      C3182   1.501       .  S
C1882      C1883   1.410       .  A
C1882      C1887   1.425       .  A
C1883      C1884   1.395       .  A
C1883      H1888   1.083       .  S
C1884      C2635   1.464       .  S
C1884      C1885   1.382       .  A
C1885      C1886   1.384       .  A
C1885      H1889   1.086       .  S
C1886      C2383   1.480       .  S
C1886      C1887   1.426       .  A
C1887      H1890   1.083       .  S
C1891      C2354   1.502       .  S
C1891      C1892   1.408       .  A
C1891      C1896   1.429       .  A
C1892      C1893   1.389       .  A
C1892      H1897   1.084       .  S
C1893      C2618   1.452       .  S
C1893      C1894   1.380       .  A
C1894      C1895   1.389       .  A
C1894      H1898   1.085       .  S
C1895      C2221   1.487       .  S
C1895      C1896   1.429       .  A
C1896      H1899   1.083       .  S
C1900      C2390   1.504       .  S
C1900      C2801   1.409       .  A
C1900      C2805   1.426       .  A
C1901      C2800   1.409       .  A
C1901      C1902   1.392       .  A
C1901      H2806   1.084       .  S
C1902      C2621   1.452       .  S
C1902      C1903   1.383       .  A
C1903      C1904   1.386       .  A
C1903      H1907   1.086       .  S
C1904      C2275   1.483       .  S
C1904      C1905   1.429       .  A
C1905      C2800   1.426       .  A
C1905      H1908   1.083       .  S
H1906      C2801   1.084       .  S
C1909      C1910   1.428       .  A
C1909      C1914   1.407       .  A
C1910      C1911   1.429       .  A
C1910      H1915   1.083       .  S
C1911      C2330   1.487       .  S
C1911      C1912   1.390       .  A
C1912      C1913   1.379       .  A
C1912      H1916   1.085       .  S
C1913      C2607   1.453       .  S
C1913      C1914   1.388       .  A
C1914      H1917   1.084       .  S
C1918      C2137   1.502       .  S
C1918      C1919   1.410       .  A
C1918      C1923   1.426       .  A
C1919      C2820   1.392   1_545  A
C1919      H1924   1.083       .  S
C1920      C2604   1.455       .  S
C1920      C2819   1.392       .  A
C1920      C1921   1.381       .  A
C1921      C2822   1.385       .  A
C1921      H1925   1.086       .  S
C1922      C3092   1.481       .  S
C1922      C2821   1.385   1_545  A
C1922      C1923   1.427       .  A
C1923      H1926   1.083       .  S
C1927      C2300   1.504       .  S
C1927      C1928   1.409       .  A
C1927      C1932   1.427       .  A
C1928      C1929   1.396       .  A
C1928      H1933   1.083       .  S
C1929      C2590   1.465       .  S
C1929      C1930   1.383       .  A
C1930      C1931   1.384       .  A
C1930      H1934   1.086       .  S
C1931      C2442   1.483       .  S
C1931      C1932   1.427       .  A
C1932      H1935   1.083       .  S
C1936      C2336   1.500       .  S
C1936      C1937   1.427       .  A
C1936      C1941   1.407       .  A
C1937      H1942   1.083       .  S
C1938      C2171   1.481       .  S
C1938      C1939   1.387       .  A
C1939      C1940   1.381       .  A
C1939      H1943   1.086       .  S
C1940      C2593   1.463       .  S
C1941      H1944   1.083       .  S
C1945      C2407   1.502       .  S
C1945      C1946   1.430       .  A
C1945      C1950   1.407       .  A
C1946      C1947   1.430       .  A
C1946      H1951   1.082       .  S
C1947      C2247   1.485       .  S
C1947      C1948   1.388       .  A
C1948      C1949   1.378       .  A
C1948      H1952   1.086       .  S
C1949      C2579   1.447       .  S
C1949      C1950   1.387       .  A
C1950      H1953   1.084       .  S
C1954      C2438   1.505       .  S
C1954      C1955   1.429       .  A
C1954      C1959   1.407       .  A
C1955      C1956   1.432       .  A
C1955      H1960   1.083       .  S
C1956      C2299   1.487       .  S
C1956      C1957   1.386       .  A
C1957      C1958   1.379       .  A
C1957      H1961   1.085       .  S
C1958      C2576   1.447       .  S
C1958      C1959   1.389       .  A
C1959      H1962   1.084       .  S
C1963      C2223   1.501       .  S
C1963      C1964   1.409       .  A
C1963      C1968   1.427   1_554  A
C1964      C1965   1.390       .  A
C1964      H1969   1.084       .  S
C1965      C2562   1.448       .  S
C1965      C1966   1.378   1_554  A
C1966      C1967   1.385       .  A
C1966      H1970   1.086       .  S
C1967      C2169   1.481       .  S
C1967      C1968   1.428       .  A
C1968      H1971   1.083       .  S
C1972      C2225   1.499       .  S
C1972      C1973   1.407       .  A
C1972      C1977   1.428       .  A
C1973      C1974   1.387       .  A
C1973      H1978   1.084       .  S
C1974      C2565   1.447       .  S
C1974      C1975   1.377       .  A
C1975      C1976   1.389       .  A
C1975      H1979   1.085       .  S
C1976      C2387   1.484       .  S
C1976      C1977   1.428       .  A
C1977      H1980   1.083       .  S
C1981      C2278   1.502       .  S
C1981      C1982   1.408       .  A
C1981      C1986   1.429       .  A
C1982      C1983   1.394       .  A
C1982      H1987   1.083       .  S
C1983      C2548   1.461       .  S
C1983      C1984   1.380       .  A
C1984      C1985   1.385       .  A
C1984      H1988   1.086       .  S
C1985      C2440   1.482       .  S
C1985      C1986   1.426       .  A
C1986      H1989   1.082       .  S
C1990      C1991   1.410       .  A
C1990      C1995   1.426       .  A
C1991      C1992   1.394       .  A
C1991      H1996   1.083       .  S
C1992      C2551   1.462       .  S
C1992      C1993   1.381       .  A
C1993      C1994   1.384       .  A
C1993      H1997   1.085       .  S
C1994      C2385   1.481       .  S
C1994      C1995   1.427       .  A
C1995      H1998   1.083       .  S
C1999      C2353   1.503       .  S
C1999      C2000   1.408       .  A
C2000      H2005   1.084       .  S
C2001      C2534   1.457       .  S
C2001      C2002   1.383       .  A
C2002      C2003   1.387       .  A
C2002      H2006   1.085       .  S
C2003      C2281   1.484       .  S
C2003      C2004   1.429       .  A
C2008      C2384   1.498       .  S
C2008      C2009   1.409       .  A
C2008      C2013   1.427       .  A
C2009      C2010   1.389       .  A
C2009      H2014   1.084       .  S
C2010      C3437   1.454       .  S
C2010      C2011   1.380       .  A
C2011      C2012   1.388       .  A
C2011      H2915   1.086       .  S
C2012      C2228   1.482       .  S
C2012      C2013   1.425       .  A
C2013      H2016   1.083       .  S
H2015      C2911   1.086   1_545  S
C2017      C2245   1.501       .  S
C2017      C2018   1.408       .  A
C2017      C2022   1.427       .  A
C2018      C2019   1.389       .  A
C2018      H2023   1.084       .  S
C2019      C2523   1.447       .  S
C2019      C2020   1.380       .  A
C2020      C2021   1.386       .  A
C2020      H2024   1.085       .  S
C2021      C2389   1.484       .  S
C2021      C2022   1.430       .  A
C2022      H2025   1.083       .  S
C2026      C2276   1.501       .  S
C2026      C2027   1.407       .  A
C2026      C2031   1.429       .  A
C2027      C2928   1.387   1_545  A
C2027      H2032   1.084       .  S
C2028      C2520   1.448       .  S
C2028      C2927   1.387       .  A
C2028      C2029   1.378       .  A
C2029      C2930   1.387       .  A
C2029      H2033   1.085       .  S
C2030      C2444   1.485       .  S
C2030      C2929   1.387   1_545  A
C2030      C2031   1.429       .  A
C2031      H2034   1.082       .  S
C2035      C2331   1.505       .  S
C2035      C2036   1.409       .  A
C2035      C2040   1.428       .  A
C2036      C2037   1.393       .  A
C2036      H2041   1.084       .  S
C2037      C2506   1.457       .  S
C2037      C2038   1.382       .  A
C2038      C2039   1.388       .  A
C2038      H2042   1.085       .  S
C2039      C2139   1.485       .  S
C2039      C2040   1.427       .  A
C2040      H2043   1.083       .  S
C2044      C2333   1.507       .  S
C2044      C2045   1.409       .  A
C2044      C2049   1.429       .  A
C2045      C2046   1.393       .  A
C2045      H2050   1.084       .  S
C2046      C3409   1.455       .  S
C2046      C2047   1.382       .  A
C2047      C2048   1.386       .  A
C2047      H2951   1.085       .  S
C2048      C2408   1.488       .  S
C2048      C2049   1.431       .  A
C2049      H2052   1.083       .  S
H2051      C2947   1.085   1_545  S
C2053      C2441   1.498       .  S
C2053      C2054   1.407       .  A
C2053      C2058   1.427       .  A
C2054      C2055   1.391       .  A
C2054      H2059   1.084       .  S
C2055      C2492   1.459       .  S
C2055      C2056   1.378       .  A
C2056      C2057   1.388       .  A
C2056      H2060   1.085       .  S
C2057      C2279   1.481       .  S
C2057      C2058   1.426       .  A
C2058      H2061   1.083       .  S
C2062      C2439   1.502       .  S
C2062      C2063   1.409       .  A
C2062      C2067   1.427       .  A
C2063      C2064   1.393       .  A
C2063      H2068   1.083       .  S
C2064      C2495   1.460       .  S
C2064      C2065   1.380       .  A
C2065      C2066   1.384       .  A
C2065      H2069   1.085       .  S
C2066      C2301   1.481       .  S
C2066      C2067   1.428       .  A
C2067      H2070   1.083       .  S
C2071      C2388   1.500       .  S
C2071      C2072   1.407       .  A
C2071      C2076   1.427       .  A
C2072      C2073   1.389       .  A
C2072      H2077   1.084       .  S
C2073      C2478   1.448       .  S
C2073      C2074   1.380       .  A
C2074      C2075   1.387       .  A
C2074      H2078   1.085       .  S
C2075      C2277   1.483       .  S
C2075      C2076   1.428       .  A
C2076      H2079   1.083       .  S
C2080      C2386   1.498       .  S
C2080      C2081   1.407       .  A
C2080      C2085   1.428       .  A
C2081      C2082   1.388       .  A
C2081      H2086   1.084       .  S
C2082      C2083   1.378       .  A
C2083      C2084   1.389       .  A
C2083      H2087   1.085       .  S
C2084      C2224   1.483       .  S
C2084      C2085   1.426       .  A
C2085      H2088   1.083       .  S
C2089      C2222   1.502       .  S
C2089      C2090   1.427   1_554  A
C2089      C2094   1.409       .  A
C2090      C2091   1.429       .  A
C2090      H2095   1.083       .  S
C2091      C2173   1.484       .  S
C2091      C2092   1.385       .  A
C2092      C2093   1.380   1_556  A
C2092      H2096   1.085       .  S
C2093      C2094   1.390       .  A
C2094      H2097   1.084       .  S
C2098      C2191   1.499       .  S
C2098      C2099   1.428       .  A
C2098      C2103   1.408       .  A
C2099      C2100   1.426       .  A
C2099      H2104   1.083       .  S
C2100      C2355   1.483       .  S
C2100      C2101   1.387       .  A
C2101      C2102   1.378       .  A
C2101      H2105   1.085       .  S
C2102      C2464   1.452       .  S
C2102      C2103   1.389       .  A
C2103      H2106   1.084       .  S
C2107      C2170   1.498       .  S
C2107      C2108   1.428       .  A
C2107      C2112   1.407       .  A
C2108      C2109   1.427       .  A
C2108      H2113   1.083       .  S
C2109      C2335   1.486       .  S
C2109      C2110   1.390       .  A
C2110      C2111   1.379       .  A
C2110      H2114   1.085       .  S
C2111      C2450   1.451       .  S
C2111      C2112   1.388       .  A
C2112      H2115   1.084       .  S
C2116      C2172   1.502       .  S
C2116      C2117   1.408       .  A
C2116      C2121   1.428       .  A
C2117      H2122   1.084       .  S
C2118      C2453   1.450       .  S
C2118      C2119   1.381       .  A
C2119      H2123   1.085       .  S
C2120      C2121   1.430       .  A
C2121      H2124   1.083       .  S
O2125     Zr2161   2.497       .  S
O2125      C2136   1.308       .  A
O2126     Zr2160   2.474       .  S
O2126      C2137   1.297       .  A
O2127     Zr2133   2.464       .  S
O2127      C2138   1.294       .  A
O2128     Zr2133   2.503       .  S
O2128      C2139   1.309       .  A
O2129     Zr2163   2.393       .  S
O2129      C2139   1.283       .  A
O2130     Zr2162   2.456       .  S
O2130      C2138   1.299       .  A
O2131     Zr2133   2.457       .  S
O2131      C2137   1.299       .  A
O2132     Zr2133   2.386       .  S
O2132      C2136   1.281       .  A
Zr2133     O2134   2.317       .  S
Zr2133     O2135   2.354       .  S
Zr2133     O2143   2.344       .  S
Zr2133     O2141   2.346       .  S
O2134     Zr2160   2.332       .  S
O2134     Zr2163   2.355       .  S
O2135     Zr2161   2.315       .  S
O2135     Zr2162   2.333       .  S
C2138      C2719   1.501   1_545  S
H2140      O2141   0.963       .  S
O2141     Zr2160   2.364       .  S
O2141     Zr2162   2.315       .  S
H2142      O2143   0.965       .  S
O2143     Zr2161   2.345       .  S
O2143     Zr2163   2.343       .  S
O2144     Zr2160   2.512       .  S
O2144      C2167   1.311       .  A
O2145     Zr2161   2.460       .  S
O2145      C2168   1.293   1_655  A
O2146     Zr2162   2.513       .  S
O2146      C2169   1.311       .  A
O2147     Zr2163   2.456       .  S
O2147      C2170   1.293       .  A
O2148     Zr2163   2.499       .  S
O2148      C2171   1.309       .  A
O2149     Zr2162   2.468       .  S
O2149      C2172   1.295       .  A
O2150     Zr2164   2.510       .  S
O2150      C2173   1.311       .  A
O2151     Zr2164   2.471       .  S
O2151      C2174   1.296       .  A
O2152     Zr2162   2.379       .  S
O2152      C2173   1.280       .  A
O2153     Zr2163   2.464       .  S
O2153      C2174   1.301       .  A
O2154     Zr2160   2.373       .  S
O2154      C2169   1.279       .  A
O2155     Zr2161   2.462       .  S
O2155      C2172   1.300       .  A
O2156     Zr2161   2.391       .  S
O2156      C2171   1.282       .  A
O2157     Zr2160   2.455       .  S
O2157      C2170   1.299       .  A
O2158     Zr2164   2.378       .  S
O2158      C2167   1.280       .  A
O2159     Zr2164   2.458       .  S
O2159      C2168   1.300   1_655  A
Zr2160     O2166   2.338       .  S
Zr2160     O2178   2.313       .  S
Zr2161     O2165   2.354       .  S
Zr2161     O2176   2.345       .  S
Zr2162     O2166   2.337       .  S
Zr2162     O2176   2.366       .  S
Zr2163     O2165   2.314       .  S
Zr2163     O2178   2.343       .  S
Zr2164     O2165   2.332       .  S
Zr2164     O2166   2.338       .  S
Zr2164     O2178   2.365       .  S
Zr2164     O2176   2.315       .  S
H2175      O2176   0.963       .  S
H2177      O2178   0.962       .  S
O2179     Zr2215   2.518       .  S
O2179      C2190   1.312       .  A
O2180     Zr2214   2.458       .  S
O2180      C2191   1.293       .  A
O2181     Zr2187   2.512       .  S
O2181      C2192   1.311       .  A
O2182      C2193   1.295   1_556  A
O2183     Zr2217   2.464       .  S
O2183      C2193   1.301       .  A
O2184     Zr2216   2.374       .  S
O2184      C3092   1.279       .  A
O2185     Zr2187   2.457   1_554  S
O2185      C2191   1.299       .  A
O2186      C2190   1.280   1_455  A
Zr2187     O2188   2.333   1_556  S
Zr2187     O2189   2.339       .  S
Zr2187     O2195   2.314   1_556  S
O2188     Zr2214   2.354       .  S
O2189     Zr3116   2.341       .  S
C2192      C2822   1.481       .  S
C2192      O3084   1.279       .  A
H2194      O2195   0.963       .  S
O2195     Zr2214   2.347       .  S
O2195     Zr3116   2.365   1_554  S
H2196      O2197   0.962       .  S
O2197     Zr2215   2.314   1_554  S
O2197     Zr2217   2.345       .  S
O2198     Zr3114   2.497   1_545  S
O2198      C2221   1.308       .  A
O2199     Zr3115   2.469   1_545  S
O2199      C2222   1.296   1_556  A
O2200     Zr2216   2.470       .  S
O2200      C2223   1.296   1_556  A
O2201     Zr2217   2.495   1_455  S
O2202     Zr2217   2.457       .  S
O2202      C2225   1.293       .  A
O2203     Zr2216   2.509       .  S
O2203      C2226   1.310       .  A
O2204     Zr2218   2.455       .  S
O2204      C2227   1.292       .  A
O2205      C3128   1.307       .  A
O2206     Zr2216   2.457   1_554  S
O2206      C2227   1.300       .  A
O2207     Zr2217   2.395       .  S
O2207      C2228   1.283       .  A
O2208     Zr3114   2.459   1_545  S
O2208      C2223   1.300       .  A
O2209     Zr3115   2.387   1_545  S
O2210     Zr2215   2.458   1_554  S
O2210      C2225   1.300       .  A
O2211     Zr2214   2.395       .  S
O2211      C2224   1.283       .  A
O2212     Zr2218   2.401       .  S
O2212      C2221   1.284       .  A
O2213      C2222   1.300       .  A
Zr2214     O3098   2.497       .  S
Zr2214     O3108   2.459       .  S
Zr2214     O3120   2.316       .  S
Zr2214     O2232   2.345       .  S
Zr2215     O3099   2.469       .  S
Zr2215     O3109   2.387       .  S
Zr2215     O2219   2.336   1_556  S
Zr2216     O3089   2.341   1_545  S
Zr2216     O3095   2.365   1_546  S
Zr2216     O2220   2.331   1_556  S
Zr2216     O2230   2.311   1_556  S
Zr2217     O2219   2.354       .  S
Zr2218     O2220   2.354       .  S
Zr2218     O3132   2.345   1_545  S
Zr2218     O2230   2.345       .  S
O2220     Zr3114   2.316   1_545  S
C2228      O3105   1.307       .  A
H2229      O2230   0.962       .  S
H2231      O2232   0.965       .  S
O2232     Zr3118   2.345       .  S
O2233     Zr2269   2.496       .  S
O2233      C2244   1.308       .  A
O2234     Zr2268   2.466       .  S
O2234      C2245   1.295       .  A
O2235     Zr2241   2.457       .  S
O2235      C2246   1.293       .  A
O2236     Zr2241   2.504       .  S
O2236      C2247   1.309       .  A
O2237     Zr2271   2.392       .  S
O2237      C2247   1.282       .  A
O2238     Zr2270   2.457       .  S
O2238      C2246   1.299       .  A
O2239     Zr2241   2.463       .  S
O2239      C2245   1.300       .  A
O2240     Zr2241   2.397       .  S
O2240      C2244   1.283       .  A
Zr2241     O2242   2.315       .  S
Zr2241     O2243   2.356       .  S
Zr2241     O2251   2.343       .  S
Zr2241     O2249   2.347       .  S
O2242     Zr2268   2.334       .  S
O2242     Zr2271   2.353       .  S
O2243     Zr2269   2.315       .  S
O2243     Zr2270   2.332       .  S
H2248      O2249   0.962       .  S
O2249     Zr2268   2.367       .  S
O2249     Zr2270   2.315       .  S
H2250      O2251   0.965       .  S
O2251     Zr2269   2.347       .  S
O2251     Zr2271   2.346       .  S
O2252     Zr2268   2.520       .  S
O2252      C2275   1.312       .  A
O2253     Zr2269   2.457       .  S
O2253      C2276   1.293       .  A
O2254     Zr2270   2.508       .  S
O2254      C2277   1.310       .  A
O2255     Zr2271   2.458       .  S
O2255      C2278   1.293       .  A
O2256     Zr2271   2.495       .  S
O2256      C2279   1.308       .  A
O2257     Zr2270   2.470       .  S
O2257      C2280   1.296   1_655  A
O2258     Zr2272   2.515       .  S
O2258      C2281   1.311       .  A
O2259     Zr2272   2.468       .  S
O2259      C2282   1.296       .  A
O2260     Zr2270   2.378       .  S
O2260      C2281   1.280       .  A
O2261     Zr2271   2.459       .  S
O2261      C2282   1.299       .  A
O2262     Zr2268   2.382       .  S
O2262      C2277   1.281       .  A
O2263     Zr2269   2.462       .  S
O2263      C2280   1.300   1_655  A
O2264     Zr2269   2.391       .  S
O2264      C2279   1.282       .  A
O2265     Zr2268   2.464       .  S
O2265      C2278   1.301       .  A
O2266     Zr2272   2.373       .  S
O2266      C2275   1.279       .  A
O2267     Zr2272   2.459       .  S
O2267      C2276   1.300       .  A
Zr2268     O2274   2.338       .  S
Zr2268     O2286   2.315       .  S
Zr2269     O2273   2.356       .  S
Zr2269     O2284   2.345       .  S
Zr2270     O2274   2.337       .  S
Zr2270     O2284   2.363       .  S
Zr2271     O2273   2.316       .  S
Zr2271     O2286   2.347       .  S
Zr2272     O2273   2.332       .  S
Zr2272     O2274   2.336       .  S
Zr2272     O2286   2.365       .  S
Zr2272     O2284   2.312       .  S
C2282      C2782   1.501   1_545  S
H2283      O2284   0.962       .  S
H2285      O2286   0.963       .  S
O2287     Zr2323   2.449       .  S
O2287      C2298   1.292       .  A
O2288     Zr2322   2.520       .  S
O2288      C2299   1.313       .  A
O2289     Zr2295   2.466       .  S
O2289      C2300   1.295       .  A
O2290     Zr2295   2.515       .  S
O2290      C2301   1.312       .  A
O2291     Zr2325   2.372       .  S
O2291      C2301   1.278       .  A
O2292     Zr2324   2.470       .  S
O2292      C2300   1.302       .  A
O2293     Zr2295   2.377       .  S
O2293      C2299   1.279       .  A
O2294     Zr2295   2.456       .  S
O2294      C2298   1.299       .  A
Zr2295     O2296   2.336       .  S
Zr2295     O2297   2.331       .  S
Zr2295     O2305   2.315       .  S
Zr2295     O2303   2.363       .  S
O2296     Zr2322   2.337       .  S
O2296     Zr2325   2.341       .  S
O2297     Zr2323   2.354       .  S
O2297     Zr2324   2.319       .  S
H2302      O2303   0.962       .  S
O2303     Zr2322   2.308       .  S
O2303     Zr2324   2.345       .  S
H2304      O2305   0.963       .  S
O2305     Zr2323   2.346       .  S
O2305     Zr2325   2.366       .  S
O2306     Zr2322   2.464       .  S
O2306      C2329   1.295       .  A
O2307     Zr2323   2.492       .  S
O2307      C2330   1.307       .  A
O2308     Zr2324   2.463       .  S
O2308      C2331   1.295       .  A
O2309     Zr2325   2.519       .  S
O2309      C2332   1.312       .  A
O2310     Zr2325   2.474       .  S
O2310      C2333   1.297       .  A
O2311     Zr2324   2.500       .  S
O2311      C2334   1.309       .  A
O2312     Zr2326   2.491       .  S
O2312      C2335   1.306       .  A
O2313     Zr2326   2.455       .  S
O2313      C2336   1.293       .  A
O2314     Zr2324   2.402       .  S
O2314      C2335   1.284       .  A
O2315     Zr2325   2.461       .  S
O2315      C2336   1.300       .  A
O2316     Zr2322   2.461       .  S
O2316      C2331   1.300       .  A
O2317     Zr2323   2.394       .  S
O2317      C2334   1.283       .  A
O2318     Zr2323   2.466       .  S
O2318      C2333   1.301       .  A
O2319     Zr2322   2.374       .  S
O2319      C2332   1.279       .  A
O2320     Zr2326   2.458       .  S
O2320      C2329   1.299       .  A
O2321     Zr2326   2.400       .  S
O2321      C2330   1.283       .  A
Zr2322     O2328   2.336       .  S
Zr2322     O2340   2.367       .  S
Zr2323     O2327   2.312       .  S
Zr2323     O2338   2.348       .  S
Zr2324     O2328   2.356       .  S
Zr2324     O2338   2.350       .  S
Zr2325     O2327   2.332       .  S
Zr2325     O2340   2.310       .  S
Zr2326     O2327   2.353       .  S
Zr2326     O2328   2.322       .  S
Zr2326     O2340   2.345       .  S
Zr2326     O2338   2.345       .  S
H2337      O2338   0.966       .  S
H2339      O2340   0.962       .  S
O2341     Zr2377   2.495       .  S
O2341      C2352   1.308       .  A
O2342     Zr2376   2.471       .  S
O2342      C2353   1.296       .  A
O2343     Zr2349   2.462       .  S
O2343      C2354   1.294       .  A
O2344     Zr2349   2.496       .  S
O2344      C2355   1.308       .  A
O2345     Zr2379   2.392       .  S
O2345      C2355   1.282       .  A
O2346     Zr2378   2.459       .  S
O2346      C2354   1.300       .  A
O2347     Zr2349   2.462       .  S
O2347      C2353   1.300       .  A
O2348     Zr2349   2.394       .  S
O2348      C2352   1.283       .  A
Zr2349     O2350   2.317       .  S
Zr2349     O2351   2.352       .  S
Zr2349     O2359   2.347       .  S
Zr2349     O2357   2.346       .  S
O2350     Zr2376   2.332       .  S
O2350     Zr2379   2.355       .  S
O2351     Zr2377   2.313       .  S
O2351     Zr2378   2.330       .  S
H2356      O2357   0.962       .  S
O2357     Zr2376   2.366       .  S
O2357     Zr2378   2.310       .  S
H2358      O2359   0.965       .  S
O2359     Zr2377   2.345       .  S
O2359     Zr2379   2.345       .  S
O2360     Zr2376   2.512       .  S
O2360      C2383   1.311       .  A
O2361     Zr2377   2.458       .  S
O2361      C2384   1.293       .  A
O2362     Zr2378   2.514       .  S
O2362      C2385   1.312       .  A
O2363     Zr2379   2.453       .  S
O2363      C2386   1.292       .  A
O2364     Zr2379   2.494       .  S
O2364      C2387   1.307       .  A
O2365     Zr2378   2.463       .  S
O2365      C2388   1.295       .  A
O2366     Zr2380   2.512       .  S
O2366      C2389   1.311       .  A
O2367     Zr2380   2.476       .  S
O2367      C2390   1.297       .  A
O2368     Zr2378   2.378       .  S
O2368      C2389   1.280       .  A
O2369     Zr2379   2.458       .  S
O2369      C2390   1.299       .  A
O2370     Zr2376   2.371       .  S
O2370      C2385   1.278       .  A
O2371     Zr2377   2.463       .  S
O2371      C2388   1.300       .  A
O2372     Zr2377   2.394       .  S
O2372      C2387   1.283       .  A
O2373     Zr2376   2.457       .  S
O2373      C2386   1.300       .  A
O2374     Zr2380   2.373       .  S
O2374      C2383   1.279       .  A
O2375     Zr2380   2.452       .  S
O2375      C2384   1.298       .  A
Zr2376     O2382   2.337       .  S
Zr2376     O2394   2.313       .  S
Zr2377     O2381   2.355       .  S
Zr2377     O2392   2.343       .  S
Zr2378     O2382   2.336       .  S
Zr2378     O2392   2.365       .  S
Zr2379     O2381   2.315       .  S
Zr2379     O2394   2.345       .  S
Zr2380     O2381   2.332       .  S
Zr2380     O2382   2.338       .  S
Zr2380     O2394   2.364       .  S
Zr2380     O2392   2.316       .  S
H2391      O2392   0.963       .  S
H2393      O2394   0.963       .  S
O2395      C2406   1.308       .  A
O2396     Zr3330   2.461   1_545  S
O2396      C2407   1.293       .  A
O2397     Zr2403   2.518   1_565  S
O2397      C3308   1.312       .  A
O2398     Zr2403   2.472       .  S
O2398      C2409   1.296       .  A
O2399     Zr2433   2.462       .  S
O2399      C2409   1.300       .  A
O2400     Zr2432   2.382       .  S
O2400      C2408   1.281       .  A
O2401     Zr2403   2.460       .  S
O2401      C2407   1.300       .  A
O2402     Zr2403   2.378       .  S
O2402      C2406   1.280       .  A
Zr2403     O2404   2.333       .  S
Zr2403     O3305   2.338   1_545  S
Zr2403     O2413   2.367       .  S
Zr2403     O3311   2.313   1_545  S
O2404     Zr3330   2.354   1_545  S
O2404     Zr2433   2.314       .  S
O2405     Zr3303   2.338       .  S
O2405     Zr2432   2.334       .  S
C2408      O3297   1.312       .  A
H2410      O2411   0.962       .  S
O2411     Zr3303   2.313       .  S
O2411     Zr2430   2.344       .  S
O2411     Zr2432   2.365       .  S
H2412      O2413   0.963       .  S
O2413     Zr2433   2.346       .  S
O2414     Zr2430   2.497       .  S
O2414      C2437   1.308       .  A
O2415     Zr2431   2.470       .  S
O2415      C2438   1.295       .  A
O2416     Zr2432   2.469       .  S
O2416      C2439   1.296       .  A
O2417     Zr2433   2.504       .  S
O2417      C2440   1.309       .  A
O2418      C2441   1.293       .  A
O2419      C2442   1.312       .  A
O2420     Zr2434   2.457       .  S
O2420      C2443   1.293       .  A
O2421     Zr2434   2.503       .  S
O2421      C3344   1.309       .  A
O2422      C2443   1.300       .  A
O2423      C2444   1.283   1_455  A
O2424     Zr2430   2.464       .  S
O2424      C2439   1.300       .  A
O2425     Zr2431   2.375       .  S
O2425      C2442   1.279       .  A
O2426     Zr3331   2.457   1_545  S
O2426      C2441   1.300       .  A
O2427     Zr3330   2.390   1_545  S
O2427      C2440   1.282       .  A
O2428      C2437   1.282       .  A
O2429     Zr2434   2.466       .  S
O2429      C2438   1.301       .  A
Zr2430     O3296   2.461       .  S
Zr2430     O3327   2.390       .  S
Zr2430     O3304   2.354       .  S
Zr2430     O2436   2.315       .  S
Zr2430     O2448   2.347       .  S
Zr2431     O3326   2.457       .  S
Zr2431     O2435   2.329       .  S
Zr2431     O2446   2.362       .  S
Zr2432     O2436   2.334       .  S
Zr2433     O3348   2.343   1_545  S
Zr2434     O2435   2.312       .  S
Zr2434     O2446   2.345       .  S
C2444      O3321   1.309   1_545  A
H2445      O2446   0.963       .  S
H2447      O3348   0.965       .  S
O2448     Zr3333   2.343       .  S
O2448      H3347   0.965       .  S
C2449      C2450   1.396       .  A
C2449      C2454   1.395       .  A
C2449      H2456   1.084       .  S
C2450      C2451   1.415       .  A
C2451      C2452   1.395       .  A
C2451      N2458   1.444       .  S
C2452      C2453   1.396       .  A
C2452      H2457   1.084       .  S
C2453      C2454   1.415       .  A
C2454      N2455   1.445       .  S
N2455      O2459   1.263       .  A
N2455      O2460   1.262       .  A
N2458      O2461   1.262       .  A
N2458      O2462   1.263       .  A
C2463      C2464   1.394       .  A
C2463      C2468   1.393       .  A
C2463      H2470   1.084       .  S
C2464      C2465   1.415       .  A
C2465      C2466   1.393       .  A
C2465      N2472   1.442       .  S
C2466      C2467   1.394       .  A
C2467      C2468   1.416       .  A
C2468      N2469   1.442   1_554  S
N2469      O2473   1.263       .  A
N2469      O2474   1.263       .  A
N2472      O2475   1.263       .  A
N2472      O2476   1.263       .  A
C2477      C2478   1.396       .  A
C2477      C2482   1.394       .  A
C2477      H2484   1.084       .  S
C2478      C2479   1.417       .  A
C2479      C2480   1.394       .  A
C2479      N2486   1.447       .  S
C2480      C2481   1.396       .  A
C2480      H2485   1.084       .  S
C2481      C2482   1.416       .  A
N2483      O2488   1.262       .  A
N2486      O2489   1.262       .  A
N2486      O2490   1.263       .  A
C2491      C3392   1.394       .  A
C2491      C2496   1.389       .  A
C2491      H2498   1.084       .  S
C2492      C3391   1.394       .  A
C2492      C2493   1.418   1_545  A
C2493      C3394   1.392       .  A
C2493      N2500   1.440       .  S
C2494      C3393   1.392       .  A
C2494      C2495   1.395       .  A
C2494      H2499   1.084       .  S
C2495      C2496   1.418       .  A
C2496      N2497   1.439       .  S
N2497      O2501   1.263       .  A
N2497      O2502   1.263       .  A
N2500      O2503   1.263       .  A
N2500      O2504   1.263       .  A
C2505      C2506   1.398       .  A
C2505      C2510   1.398       .  A
C2505      H2512   1.084       .  S
C2506      C2507   1.416       .  A
C2507      C2508   1.394       .  A
C2507      N2514   1.443       .  S
C2508      C2509   1.397       .  A
C2508      H2513   1.085       .  S
C2509      C2946   1.455   1_545  S
C2509      C2510   1.418       .  A
C2510      N2511   1.446       .  S
N2511      O2515   1.263       .  A
N2511      O3416   1.260   1_545  A
N2514      O2517   1.260       .  A
N2514      O2518   1.263       .  A
O2516      N3411   1.260       .  A
C2519      C2520   1.396       .  A
C2519      C2524   1.394       .  A
C2519      H2526   1.084       .  S
C2520      C2521   1.414       .  A
C2521      C2522   1.393       .  A
C2521      N2528   1.444       .  S
C2522      C2523   1.395       .  A
C2522      H2527   1.084       .  S
C2523      C2524   1.414       .  A
C2524      N2525   1.444       .  S
N2525      O2529   1.263       .  A
N2525      O2530   1.262       .  A
N2528      O2531   1.262       .  A
N2528      O2532   1.263       .  A
C2533      C2534   1.406       .  A
C2533      C2538   1.394       .  A
C2533      H2540   1.084       .  S
C2534      C2535   1.409       .  A
C2535      C2536   1.394       .  A
C2535      N2542   1.443       .  S
C2536      C2537   1.404       .  A
C2536      H2541   1.085       .  S
C2537      C2910   1.454   1_545  S
C2537      C2538   1.406       .  A
C2538      N2539   1.443       .  S
N2539      O2543   1.263       .  A
N2539      O3444   1.262   1_545  A
N2542      O2545   1.261       .  A
N2542      O2546   1.263       .  A
O2544      N3439   1.262       .  A
C2547      C2548   1.408       .  A
C2547      C2552   1.391       .  A
C2547      H2554   1.084       .  S
C2548      C2549   1.405       .  A
C2549      C2550   1.392       .  A
C2549      N2556   1.440       .  S
C2550      C2551   1.408       .  A
C2550      H2555   1.084       .  S
C2551      C2552   1.406       .  A
C2552      N2553   1.440       .  S
N2553      O2557   1.263       .  A
N2553      O2558   1.262       .  A
N2556      O2559   1.263       .  A
N2556      O2560   1.263       .  A
C2561      C2562   1.394       .  A
C2561      C3466   1.395   1_545  A
C2561      H2568   1.084       .  S
C2562      C3463   1.411   1_545  A
C2563      C3462   1.411       .  A
C2563      C2564   1.389       .  A
C2563      N2570   1.436   1_554  S
C2564      C2565   1.394       .  A
C2564      H2569   1.084       .  S
C2565      C2566   1.416       .  A
C2566      C3461   1.395       .  A
C2566      N2567   1.442       .  S
N2567      O3471   1.263       .  A
N2567      O2572   1.262       .  A
N2570      O3473   1.262       .  A
N2570      O2574   1.262       .  A
O2571      N3467   1.263       .  A
O2573      N3470   1.262       .  A
C2575      C2576   1.394       .  A
C2575      C2580   1.395       .  A
C2575      H2582   1.084       .  S
C2576      C2577   1.413       .  A
C2577      C2578   1.392       .  A
C2577      N2584   1.443       .  S
C2578      C2579   1.395       .  A
C2578      H2583   1.084       .  S
C2579      C2580   1.418       .  A
C2580      N2581   1.447       .  S
N2581      O2585   1.263       .  A
N2581      O2586   1.262       .  A
N2584      O2587   1.263       .  A
N2584      O2588   1.262       .  A
C2589      C2590   1.409       .  A
C2589      C2594   1.390       .  A
C2589      H2596   1.084       .  S
C2590      C2591   1.407       .  A
C2591      C2592   1.393       .  A
C2591      N2598   1.439       .  S
C2592      C2593   1.408       .  A
C2592      H2597   1.084       .  S
C2593      C2594   1.406       .  A
C2594      N2595   1.440       .  S
N2595      O2599   1.262       .  A
N2598      O2601   1.263       .  A
N2598      O2602   1.262       .  A
C2603      C2604   1.395       .  A
C2603      C2608   1.396       .  A
C2603      H2610   1.084       .  S
C2604      C2605   1.416       .  A
C2605      C2606   1.390       .  A
C2605      N2612   1.441       .  S
C2606      C2607   1.393       .  A
C2606      H2611   1.084       .  S
C2607      C2608   1.416       .  A
C2608      N2609   1.442       .  S
N2609      O2613   1.263       .  A
N2609      O2614   1.263       .  A
N2612      O2615   1.263       .  A
N2612      O2616   1.263       .  A
C2617      C2618   1.403       .  A
C2617      C2622   1.396       .  A
C2617      H2624   1.085       .  S
C2618      C2619   1.413       .  A
C2619      C2620   1.396       .  A
C2619      N2626   1.449       .  S
C2620      C2621   1.401       .  A
C2620      H2625   1.084       .  S
C2621      C2622   1.408       .  A
C2622      N2623   1.444       .  S
N2623      O2627   1.263       .  A
N2623      O2628   1.263       .  A
N2626      O2629   1.262       .  A
N2626      O2630   1.263   1_545  A
C2631      C2632   1.409       .  A
C2631      C2636   1.393       .  A
C2631      H2638   1.084       .  S
C2632      C2633   1.405       .  A
C2633      C2634   1.392       .  A
C2633      N2640   1.440       .  S
C2634      C2635   1.409       .  A
C2634      H2639   1.084       .  S
C2635      C2636   1.406       .  A
C2636      N2637   1.440       .  S
N2637      O2641   1.263       .  A
N2637      O2642   1.262       .  A
N2640      O2643   1.263       .  A
N2640      O2644   1.263       .  A
C2645      C2646   1.393       .  A
C2645      C2650   1.391       .  A
C2645      H2652   1.084   1_554  S
C2646      C2647   1.416       .  A
C2647      C2648   1.393       .  A
C2647      N2654   1.441       .  S
C2648      C2649   1.394       .  A
C2648      H2653   1.084       .  S
C2649      C2650   1.416       .  A
C2650      N2651   1.441   1_554  S
N2651      O2655   1.263       .  A
N2651      O2656   1.263       .  A
N2654      O2657   1.263       .  A
N2654      O2658   1.263       .  A
C2659      H2666   1.084       .  S
C2660      C2661   1.414       .  A
C2661      C2662   1.395       .  A
C2661      N2668   1.443       .  S
C2662      C2663   1.396       .  A
C2662      H2667   1.084       .  S
C2663      C2664   1.414       .  A
C2664      N2665   1.443       .  S
N2665      O2670   1.262       .  A
N2668      O2671   1.262       .  A
N2668      O2672   1.263       .  A
C2673      C2674   1.396       .  A
C2673      C2678   1.394       .  A
C2673      H2680   1.084       .  S
C2674      C2675   1.415       .  A
C2675      C2676   1.395       .  A
C2675      N2682   1.445       .  S
C2676      C2677   1.396       .  A
C2676      H2681   1.084       .  S
C2677      C2678   1.414       .  A
C2678      N2679   1.445       .  S
N2679      O2683   1.263       .  A
N2679      O2684   1.262       .  A
N2682      O2685   1.262       .  A
N2682      O2686   1.263       .  A
C2687      C2688   1.408       .  A
C2687      C2692   1.390       .  A
C2687      H2694   1.084       .  S
C2688      C2689   1.405       .  A
C2689      C2690   1.392       .  A
C2689      N2696   1.441       .  S
C2690      C2691   1.409       .  A
C2690      H2695   1.084       .  S
C2691      C2692   1.405       .  A
C2692      N2693   1.440       .  S
N2693      O2697   1.263       .  A
N2696      O2699   1.263       .  A
N2696      O2700   1.263       .  A
C2701      C3198   1.496       .  S
C2702      C2703   1.393       .  A
C2703      C3588   1.460       .  S
C2703      C2704   1.381       .  A
C2704      C2705   1.385       .  A
C2704      H2708   1.086       .  S
C2705      C3036   1.476       .  S
C2705      C2706   1.421       .  A
C2706      H2709   1.082       .  S
C2710      C3229   1.496       .  S
C2710      C2711   1.408       .  A
C2710      C2715   1.423       .  A
C2711      C2712   1.394       .  A
C2711      H2716   1.083       .  S
C2712      C2713   1.381       .  A
C2713      C2714   1.385       .  A
C2713      H2717   1.085       .  S
C2714      C3306   1.476       .  S
C2714      C2715   1.423       .  A
C2715      H2718   1.083       .  S
C2719      C2720   1.408       .  A
C2719      C2724   1.429       .  A
C2720      C2721   1.389       .  A
C2720      H2725   1.084       .  S
C2721      C3574   1.449       .  S
C2721      C2722   1.378       .  A
C2722      C2723   1.388       .  A
C2722      H2726   1.085       .  S
C2723      C3234   1.486       .  S
C2723      C2724   1.429       .  A
C2724      H2727   1.082       .  S
C2728      C3074   1.504       .  S
C2728      C2729   1.408       .  A
C2728      C2733   1.429       .  A
C2729      C2730   1.390       .  A
C2729      H2734   1.084       .  S
C2730      C3577   1.449       .  S
C2730      C2731   1.380       .  A
C2731      C2732   1.385       .  A
C2731      H2735   1.085       .  S
C2732      C3090   1.487       .  S
C2732      C2733   1.431       .  A
C2733      H2736   1.083       .  S
C2737      C3343   1.499       .  S
C2737      C2738   1.407       .  A
C2737      C2742   1.429       .  A
C2738      C2739   1.387       .  A
C2739      C2740   1.378       .  A
C2740      C2741   1.389       .  A
C2740      H2744   1.085       .  S
C2741      C3144   1.486       .  S
C2741      C2742   1.428       .  A
C2742      H2745   1.083       .  S
C2746      C3309   1.503       .  S
C2746      C2747   1.409       .  A
C2746      C2751   1.427       .  A
C2747      C2748   1.391       .  A
C2747      H2752   1.084       .  S
C2748      C3563   1.449       .  S
C2748      C2749   1.381       .  A
C2749      C2750   1.385       .  A
C2749      H2753   1.085       .  S
C2750      C3232   1.484       .  S
C2750      C2751   1.430       .  A
C2751      H2754   1.083       .  S
C2755      C3093   1.503       .  S
C2755      C2756   1.428   1_554  A
C2755      C2760   1.408       .  A
C2756      C2757   1.429       .  A
C2756      H2761   1.083       .  S
C2757      C3067   1.483       .  S
C2757      C2758   1.385       .  A
C2758      C2759   1.380   1_556  A
C2758      H2762   1.085       .  S
C2759      C3549   1.454       .  S
C2759      C2760   1.390       .  A
C2760      H2763   1.084       .  S
C2764      C3127   1.499       .  S
C2764      C2765   1.407       .  A
C2764      C2769   1.429       .  A
C2765      C2766   1.388       .  A
C2765      H2770   1.084       .  S
C2766      C3546   1.453       .  S
C2766      C2767   1.378       .  A
C2767      C2768   1.388       .  A
C2767      H2771   1.085       .  S
C2768      C3252   1.483       .  S
C2768      C2769   1.428       .  A
C2769      H2772   1.083       .  S
C2773      C3146   1.499       .  S
C2773      C2774   1.426       .  A
C2773      C2778   1.409   1_655  A
C2774      C2775   1.423       .  A
C2774      H2779   1.083       .  S
C2776      C2777   1.380       .  A
C2776      H2780   1.086       .  S
C2777      C3532   1.463       .  S
C2782      C2783   1.410       .  A
C2782      C2787   1.425       .  A
C2783      C2784   1.395       .  A
C2783      H2788   1.083       .  S
C2784      C3535   1.464       .  S
C2784      C2785   1.382       .  A
C2785      C2786   1.384       .  A
C2785      H2789   1.086       .  S
C2786      C3283   1.480       .  S
C2786      C2787   1.426       .  A
C2787      H2790   1.083       .  S
C2791      C3254   1.502       .  S
C2791      C2792   1.408       .  A
C2791      C2796   1.429       .  A
C2792      C2793   1.389       .  A
C2792      H2797   1.084       .  S
C2793      C3518   1.452       .  S
C2793      C2794   1.380       .  A
C2794      C2795   1.389       .  A
C2794      H2798   1.085       .  S
C2795      C3121   1.487       .  S
C2795      C2796   1.429       .  A
C2796      H2799   1.083       .  S
C2800      C3290   1.504   1_545  S
C2801      C2802   1.392       .  A
C2802      C3521   1.452       .  S
C2802      C2803   1.383       .  A
C2803      C2804   1.386       .  A
C2803      H2807   1.086       .  S
C2804      C3175   1.483       .  S
C2804      C2805   1.429       .  A
C2805      H2808   1.083       .  S
C2809      C2810   1.428       .  A
C2809      C2814   1.407       .  A
C2810      C2811   1.429       .  A
C2810      H2815   1.083       .  S
C2811      C3230   1.487       .  S
C2811      C2812   1.390       .  A
C2812      C2813   1.379       .  A
C2812      H2816   1.085       .  S
C2813      C3507   1.453       .  S
C2813      C2814   1.388       .  A
C2814      H2817   1.084       .  S
C2818      C3037   1.502       .  S
C2818      C2819   1.410       .  A
C2818      C2823   1.426       .  A
C2819      H2824   1.083       .  S
C2820      C3504   1.455       .  S
C2820      C2821   1.381       .  A
C2821      H2825   1.086       .  S
C2822      C2823   1.427       .  A
C2823      H2826   1.083       .  S
C2827      C3200   1.504       .  S
C2827      C2828   1.409       .  A
C2827      C2832   1.427       .  A
C2828      C2829   1.396       .  A
C2828      H2833   1.083       .  S
C2829      C3490   1.465       .  S
C2829      C2830   1.383       .  A
C2830      C2831   1.384       .  A
C2830      H2834   1.086       .  S
C2831      C3342   1.483       .  S
C2831      C2832   1.427       .  A
C2832      H2835   1.083       .  S
C2836      C3236   1.500       .  S
C2836      C2837   1.427       .  A
C2836      C2841   1.407       .  A
C2837      H2842   1.083       .  S
C2838      C3071   1.481       .  S
C2838      C2839   1.387       .  A
C2839      C2840   1.381       .  A
C2839      H2843   1.086       .  S
C2840      C3493   1.463       .  S
C2841      H2844   1.083       .  S
C2845      C3307   1.502       .  S
C2845      C2846   1.430       .  A
C2845      C2850   1.407       .  A
C2846      C2847   1.430       .  A
C2846      H2851   1.082       .  S
C2847      C3147   1.485       .  S
C2847      C2848   1.388       .  A
C2848      C2849   1.378       .  A
C2848      H2852   1.086       .  S
C2849      C3479   1.447       .  S
C2849      C2850   1.387       .  A
C2850      H2853   1.084       .  S
C2854      C3338   1.505       .  S
C2854      C2855   1.429       .  A
C2854      C2859   1.407       .  A
C2855      C2856   1.432       .  A
C2855      H2860   1.083       .  S
C2856      C3199   1.487       .  S
C2856      C2857   1.386       .  A
C2857      C2858   1.379       .  A
C2857      H2861   1.085       .  S
C2858      C3476   1.447       .  S
C2858      C2859   1.389       .  A
C2859      H2862   1.084       .  S
C2863      C3123   1.501       .  S
C2863      C2864   1.409       .  A
C2863      C2868   1.427   1_554  A
C2864      C2865   1.390       .  A
C2864      H2869   1.084       .  S
C2865      C3462   1.448       .  S
C2865      C2866   1.378   1_554  A
C2866      C2867   1.385       .  A
C2866      H2870   1.086       .  S
C2867      C3069   1.481       .  S
C2867      C2868   1.428       .  A
C2868      H2871   1.083       .  S
C2872      C3125   1.499       .  S
C2872      C2873   1.407       .  A
C2872      C2877   1.428       .  A
C2873      C2874   1.387       .  A
C2873      H2878   1.084       .  S
C2874      C3465   1.447       .  S
C2874      C2875   1.377       .  A
C2875      C2876   1.389       .  A
C2875      H2879   1.085       .  S
C2876      C3287   1.484       .  S
C2876      C2877   1.428       .  A
C2877      H2880   1.083       .  S
C2881      C3178   1.502       .  S
C2881      C2882   1.408       .  A
C2881      C2886   1.429       .  A
C2882      C2883   1.394       .  A
C2882      H2887   1.083       .  S
C2883      C3448   1.461       .  S
C2883      C2884   1.380       .  A
C2884      C2885   1.385       .  A
C2884      H2888   1.086       .  S
C2885      C3340   1.482       .  S
C2885      C2886   1.426       .  A
C2886      H2889   1.082       .  S
C2890      C2891   1.410       .  A
C2890      C2895   1.426       .  A
C2891      C2892   1.394       .  A
C2891      H2896   1.083       .  S
C2892      C3451   1.462       .  S
C2892      C2893   1.381       .  A
C2893      C2894   1.384       .  A
C2893      H2897   1.085       .  S
C2894      C3285   1.481       .  S
C2894      C2895   1.427       .  A
C2895      H2898   1.083       .  S
C2899      C3253   1.503       .  S
C2899      C2900   1.408       .  A
C2900      H2905   1.084       .  S
C2901      C3434   1.457       .  S
C2901      C2902   1.383       .  A
C2902      C2903   1.387       .  A
C2902      H2906   1.085       .  S
C2903      C3181   1.484       .  S
C2903      C2904   1.429       .  A
C2908      C3284   1.498       .  S
C2908      C2909   1.409       .  A
C2908      C2913   1.427       .  A
C2909      C2910   1.389       .  A
C2909      H2914   1.084       .  S
C2910      C2911   1.380       .  A
C2911      C2912   1.388       .  A
C2912      C3128   1.482       .  S
C2912      C2913   1.425       .  A
C2913      H2916   1.083       .  S
C2917      C3145   1.501       .  S
C2917      C2918   1.408       .  A
C2917      C2922   1.427       .  A
C2918      C2919   1.389       .  A
C2918      H2923   1.084       .  S
C2919      C3423   1.447       .  S
C2919      C2920   1.380       .  A
C2920      C2921   1.386       .  A
C2920      H2924   1.085       .  S
C2921      C3289   1.484       .  S
C2921      C2922   1.430       .  A
C2922      H2925   1.083       .  S
C2926      C3176   1.501       .  S
C2926      C2927   1.407       .  A
C2926      C2931   1.429       .  A
C2927      H2932   1.084       .  S
C2928      C3420   1.448       .  S
C2928      C2929   1.378       .  A
C2929      H2933   1.085       .  S
C2930      C3344   1.485       .  S
C2930      C2931   1.429       .  A
C2931      H2934   1.082       .  S
C2935      C3231   1.505       .  S
C2935      C2936   1.409       .  A
C2935      C2940   1.428       .  A
C2936      C2937   1.393       .  A
C2936      H2941   1.084       .  S
C2937      C3406   1.457       .  S
C2937      C2938   1.382       .  A
C2938      C2939   1.388       .  A
C2938      H2942   1.085       .  S
C2939      C3039   1.485       .  S
C2939      C2940   1.427       .  A
C2940      H2943   1.083       .  S
C2944      C3233   1.507       .  S
C2944      C2945   1.409       .  A
C2944      C2949   1.429       .  A
C2945      C2946   1.393       .  A
C2945      H2950   1.084       .  S
C2946      C2947   1.382       .  A
C2947      C2948   1.386       .  A
C2948      C3308   1.488       .  S
C2948      C2949   1.431       .  A
C2949      H2952   1.083       .  S
C2953      C3341   1.498       .  S
C2953      C2954   1.407       .  A
C2953      C2958   1.427       .  A
C2954      C2955   1.391       .  A
C2954      H2959   1.084       .  S
C2955      C3392   1.459       .  S
C2955      C2956   1.378       .  A
C2956      C2957   1.388       .  A
C2956      H2960   1.085       .  S
C2957      C3179   1.481       .  S
C2957      C2958   1.426       .  A
C2958      H2961   1.083       .  S
C2962      C3339   1.502       .  S
C2962      C2963   1.409       .  A
C2962      C2967   1.427       .  A
C2963      C2964   1.393       .  A
C2963      H2968   1.083       .  S
C2964      C3395   1.460       .  S
C2964      C2965   1.380       .  A
C2965      C2966   1.384       .  A
C2965      H2969   1.085       .  S
C2966      C3201   1.481       .  S
C2966      C2967   1.428       .  A
C2967      H2970   1.083       .  S
C2971      C3288   1.500       .  S
C2971      C2972   1.407       .  A
C2971      C2976   1.427       .  A
C2972      C2973   1.389       .  A
C2972      H2977   1.084       .  S
C2973      C3378   1.448       .  S
C2973      C2974   1.380       .  A
C2974      C2975   1.387       .  A
C2974      H2978   1.085       .  S
C2975      C3177   1.483       .  S
C2975      C2976   1.428       .  A
C2976      H2979   1.083       .  S
C2980      C3286   1.498       .  S
C2980      C2981   1.407       .  A
C2980      C2985   1.428       .  A
C2981      C2982   1.388       .  A
C2981      H2986   1.084       .  S
C2982      C2983   1.378       .  A
C2983      C2984   1.389       .  A
C2983      H2987   1.085       .  S
C2984      C3124   1.483       .  S
C2984      C2985   1.426       .  A
C2985      H2988   1.083       .  S
C2989      C3122   1.502       .  S
C2989      C2990   1.427   1_554  A
C2989      C2994   1.409       .  A
C2990      C2991   1.429       .  A
C2990      H2995   1.083       .  S
C2991      C3073   1.484       .  S
C2991      C2992   1.385       .  A
C2992      C2993   1.380   1_556  A
C2992      H2996   1.085       .  S
C2993      C2994   1.390       .  A
C2994      H2997   1.084       .  S
C2998      C3091   1.499       .  S
C2998      C2999   1.428       .  A
C2998      C3003   1.408       .  A
C2999      C3000   1.426       .  A
C2999      H3004   1.083       .  S
C3000      C3255   1.483       .  S
C3000      C3001   1.387       .  A
C3001      C3002   1.378       .  A
C3001      H3005   1.085       .  S
C3002      C3364   1.452       .  S
C3002      C3003   1.389       .  A
C3003      H3006   1.084       .  S
C3007      C3070   1.498       .  S
C3007      C3008   1.428       .  A
C3007      C3012   1.407       .  A
C3008      C3009   1.427       .  A
C3008      H3013   1.083       .  S
C3009      C3235   1.486       .  S
C3009      C3010   1.390       .  A
C3010      C3011   1.379       .  A
C3010      H3014   1.085       .  S
C3011      C3350   1.451       .  S
C3011      C3012   1.388       .  A
C3012      H3015   1.084       .  S
C3016      C3072   1.502       .  S
C3016      C3017   1.408       .  A
C3016      C3021   1.428       .  A
C3017      H3022   1.084       .  S
C3018      C3353   1.450       .  S
C3018      C3019   1.381       .  A
C3019      H3023   1.085       .  S
C3020      C3021   1.430       .  A
C3021      H3024   1.083       .  S
O3025     Zr3061   2.497       .  S
O3025      C3036   1.308       .  A
O3026     Zr3060   2.474       .  S
O3026      C3037   1.297       .  A
O3027     Zr3033   2.464       .  S
O3027      C3038   1.294       .  A
O3028     Zr3033   2.503       .  S
O3028      C3039   1.309       .  A
O3029     Zr3063   2.393       .  S
O3029      C3039   1.283       .  A
O3030     Zr3062   2.456       .  S
O3030      C3038   1.299       .  A
O3031     Zr3033   2.457       .  S
O3031      C3037   1.299       .  A
O3032     Zr3033   2.386       .  S
O3032      C3036   1.281       .  A
Zr3033     O3034   2.317       .  S
Zr3033     O3035   2.354       .  S
Zr3033     O3043   2.344       .  S
Zr3033     O3041   2.346       .  S
O3034     Zr3060   2.332       .  S
O3034     Zr3063   2.355       .  S
O3035     Zr3061   2.315       .  S
O3035     Zr3062   2.333       .  S
H3040      O3041   0.963       .  S
O3041     Zr3060   2.364       .  S
O3041     Zr3062   2.315       .  S
H3042      O3043   0.965       .  S
O3043     Zr3061   2.345       .  S
O3043     Zr3063   2.343       .  S
O3044     Zr3060   2.512       .  S
O3044      C3067   1.311       .  A
O3045     Zr3061   2.460       .  S
O3045      C3068   1.293   1_655  A
O3046     Zr3062   2.513       .  S
O3046      C3069   1.311       .  A
O3047     Zr3063   2.456       .  S
O3047      C3070   1.293       .  A
O3048     Zr3063   2.499       .  S
O3048      C3071   1.309       .  A
O3049     Zr3062   2.468       .  S
O3049      C3072   1.295       .  A
O3050     Zr3064   2.510       .  S
O3050      C3073   1.311       .  A
O3051     Zr3064   2.471       .  S
O3051      C3074   1.296       .  A
O3052     Zr3062   2.379       .  S
O3052      C3073   1.280       .  A
O3053     Zr3063   2.464       .  S
O3053      C3074   1.301       .  A
O3054     Zr3060   2.373       .  S
O3054      C3069   1.279       .  A
O3055     Zr3061   2.462       .  S
O3055      C3072   1.300       .  A
O3056     Zr3061   2.391       .  S
O3056      C3071   1.282       .  A
O3057     Zr3060   2.455       .  S
O3057      C3070   1.299       .  A
O3058     Zr3064   2.378       .  S
O3058      C3067   1.280       .  A
O3059     Zr3064   2.458       .  S
O3059      C3068   1.300   1_655  A
Zr3060     O3066   2.338       .  S
Zr3060     O3078   2.313       .  S
Zr3061     O3065   2.354       .  S
Zr3061     O3076   2.345       .  S
Zr3062     O3066   2.337       .  S
Zr3062     O3076   2.366       .  S
Zr3063     O3065   2.314       .  S
Zr3063     O3078   2.343       .  S
Zr3064     O3065   2.332       .  S
Zr3064     O3066   2.338       .  S
Zr3064     O3078   2.365       .  S
Zr3064     O3076   2.315       .  S
H3075      O3076   0.963       .  S
H3077      O3078   0.962       .  S
O3079     Zr3115   2.518       .  S
O3079      C3090   1.312       .  A
O3080     Zr3114   2.458       .  S
O3080      C3091   1.293       .  A
O3081     Zr3087   2.512       .  S
O3081      C3092   1.311   1_565  A
O3082      C3093   1.295   1_556  A
O3083     Zr3117   2.464       .  S
O3083      C3093   1.301       .  A
O3084     Zr3116   2.374       .  S
O3085     Zr3087   2.457   1_554  S
O3085      C3091   1.299       .  A
O3086      C3090   1.280   1_455  A
Zr3087     O3088   2.333   1_556  S
Zr3087     O3089   2.339       .  S
Zr3087     O3095   2.314   1_556  S
O3088     Zr3114   2.354       .  S
H3094      O3095   0.963       .  S
O3095     Zr3114   2.347       .  S
H3096      O3097   0.962       .  S
O3097     Zr3115   2.314   1_554  S
O3097     Zr3117   2.345       .  S
O3098      C3121   1.308       .  A
O3099      C3122   1.296   1_556  A
O3100     Zr3116   2.470       .  S
O3100      C3123   1.296   1_556  A
O3101     Zr3117   2.495   1_455  S
O3102     Zr3117   2.457       .  S
O3102      C3125   1.293       .  A
O3103     Zr3116   2.509       .  S
O3103      C3126   1.310       .  A
O3104     Zr3118   2.455       .  S
O3104      C3127   1.292       .  A
O3106     Zr3116   2.457   1_554  S
O3106      C3127   1.300       .  A
O3107     Zr3117   2.395       .  S
O3107      C3128   1.283       .  A
O3108      C3123   1.300       .  A
O3110     Zr3115   2.458   1_554  S
O3110      C3125   1.300       .  A
O3111     Zr3114   2.395       .  S
O3111      C3124   1.283       .  A
O3112     Zr3118   2.401       .  S
O3112      C3121   1.284       .  A
O3113      C3122   1.300       .  A
Zr3114     O3132   2.345       .  S
Zr3115     O3119   2.336   1_556  S
Zr3116     O3120   2.331   1_556  S
Zr3116     O3130   2.311   1_556  S
Zr3117     O3119   2.354       .  S
Zr3118     O3120   2.354       .  S
Zr3118     O3130   2.345       .  S
H3129      O3130   0.962       .  S
H3131      O3132   0.965       .  S
O3133     Zr3169   2.496       .  S
O3133      C3144   1.308       .  A
O3134     Zr3168   2.466       .  S
O3134      C3145   1.295       .  A
O3135     Zr3141   2.457       .  S
O3135      C3146   1.293       .  A
O3136     Zr3141   2.504       .  S
O3136      C3147   1.309       .  A
O3137     Zr3171   2.392       .  S
O3137      C3147   1.282       .  A
O3138     Zr3170   2.457       .  S
O3138      C3146   1.299       .  A
O3139     Zr3141   2.463       .  S
O3139      C3145   1.300       .  A
O3140     Zr3141   2.397       .  S
O3140      C3144   1.283       .  A
Zr3141     O3142   2.315       .  S
Zr3141     O3143   2.356       .  S
Zr3141     O3151   2.343       .  S
Zr3141     O3149   2.347       .  S
O3142     Zr3168   2.334       .  S
O3142     Zr3171   2.353       .  S
O3143     Zr3169   2.315       .  S
O3143     Zr3170   2.332       .  S
H3148      O3149   0.962       .  S
O3149     Zr3168   2.367       .  S
O3149     Zr3170   2.315       .  S
H3150      O3151   0.965       .  S
O3151     Zr3169   2.347       .  S
O3151     Zr3171   2.346       .  S
O3152     Zr3168   2.520       .  S
O3152      C3175   1.312       .  A
O3153     Zr3169   2.457       .  S
O3153      C3176   1.293       .  A
O3154     Zr3170   2.508       .  S
O3154      C3177   1.310       .  A
O3155     Zr3171   2.458       .  S
O3155      C3178   1.293       .  A
O3156     Zr3171   2.495       .  S
O3156      C3179   1.308       .  A
O3157     Zr3170   2.470       .  S
O3157      C3180   1.296   1_655  A
O3158     Zr3172   2.515       .  S
O3158      C3181   1.311       .  A
O3159     Zr3172   2.468       .  S
O3159      C3182   1.296       .  A
O3160     Zr3170   2.378       .  S
O3160      C3181   1.280       .  A
O3161     Zr3171   2.459       .  S
O3161      C3182   1.299       .  A
O3162     Zr3168   2.382       .  S
O3162      C3177   1.281       .  A
O3163     Zr3169   2.462       .  S
O3163      C3180   1.300   1_655  A
O3164     Zr3169   2.391       .  S
O3164      C3179   1.282       .  A
O3165     Zr3168   2.464       .  S
O3165      C3178   1.301       .  A
O3166     Zr3172   2.373       .  S
O3166      C3175   1.279       .  A
O3167     Zr3172   2.459       .  S
O3167      C3176   1.300       .  A
Zr3168     O3174   2.338       .  S
Zr3168     O3186   2.315       .  S
Zr3169     O3173   2.356       .  S
Zr3169     O3184   2.345       .  S
Zr3170     O3174   2.337       .  S
Zr3170     O3184   2.363       .  S
Zr3171     O3173   2.316       .  S
Zr3171     O3186   2.347       .  S
Zr3172     O3173   2.332       .  S
Zr3172     O3174   2.336       .  S
Zr3172     O3186   2.365       .  S
Zr3172     O3184   2.312       .  S
H3183      O3184   0.962       .  S
H3185      O3186   0.963       .  S
O3187     Zr3223   2.449       .  S
O3187      C3198   1.292       .  A
O3188     Zr3222   2.520       .  S
O3188      C3199   1.313       .  A
O3189     Zr3195   2.466       .  S
O3189      C3200   1.295       .  A
O3190     Zr3195   2.515       .  S
O3190      C3201   1.312       .  A
O3191     Zr3225   2.372       .  S
O3191      C3201   1.278       .  A
O3192     Zr3224   2.470       .  S
O3192      C3200   1.302       .  A
O3193     Zr3195   2.377       .  S
O3193      C3199   1.279       .  A
O3194     Zr3195   2.456       .  S
O3194      C3198   1.299       .  A
Zr3195     O3196   2.336       .  S
Zr3195     O3197   2.331       .  S
Zr3195     O3205   2.315       .  S
Zr3195     O3203   2.363       .  S
O3196     Zr3222   2.337       .  S
O3196     Zr3225   2.341       .  S
O3197     Zr3223   2.354       .  S
O3197     Zr3224   2.319       .  S
H3202      O3203   0.962       .  S
O3203     Zr3222   2.308       .  S
O3203     Zr3224   2.345       .  S
H3204      O3205   0.963       .  S
O3205     Zr3223   2.346       .  S
O3205     Zr3225   2.366       .  S
O3206     Zr3222   2.464       .  S
O3206      C3229   1.295       .  A
O3207     Zr3223   2.492       .  S
O3207      C3230   1.307       .  A
O3208     Zr3224   2.463       .  S
O3208      C3231   1.295       .  A
O3209     Zr3225   2.519       .  S
O3209      C3232   1.312       .  A
O3210     Zr3225   2.474       .  S
O3210      C3233   1.297       .  A
O3211     Zr3224   2.500       .  S
O3211      C3234   1.309       .  A
O3212     Zr3226   2.491       .  S
O3212      C3235   1.306       .  A
O3213     Zr3226   2.455       .  S
O3213      C3236   1.293       .  A
O3214     Zr3224   2.402       .  S
O3214      C3235   1.284       .  A
O3215     Zr3225   2.461       .  S
O3215      C3236   1.300       .  A
O3216     Zr3222   2.461       .  S
O3216      C3231   1.300       .  A
O3217     Zr3223   2.394       .  S
O3217      C3234   1.283       .  A
O3218     Zr3223   2.466       .  S
O3218      C3233   1.301       .  A
O3219     Zr3222   2.374       .  S
O3219      C3232   1.279       .  A
O3220     Zr3226   2.458       .  S
O3220      C3229   1.299       .  A
O3221     Zr3226   2.400       .  S
O3221      C3230   1.283       .  A
Zr3222     O3228   2.336       .  S
Zr3222     O3240   2.367       .  S
Zr3223     O3227   2.312       .  S
Zr3223     O3238   2.348       .  S
Zr3224     O3228   2.356       .  S
Zr3224     O3238   2.350       .  S
Zr3225     O3227   2.332       .  S
Zr3225     O3240   2.310       .  S
Zr3226     O3227   2.353       .  S
Zr3226     O3228   2.322       .  S
Zr3226     O3240   2.345       .  S
Zr3226     O3238   2.345       .  S
H3237      O3238   0.966       .  S
H3239      O3240   0.962       .  S
O3241     Zr3277   2.495       .  S
O3241      C3252   1.308       .  A
O3242     Zr3276   2.471       .  S
O3242      C3253   1.296       .  A
O3243     Zr3249   2.462       .  S
O3243      C3254   1.294       .  A
O3244     Zr3249   2.496       .  S
O3244      C3255   1.308       .  A
O3245     Zr3279   2.392       .  S
O3245      C3255   1.282       .  A
O3246     Zr3278   2.459       .  S
O3246      C3254   1.300       .  A
O3247     Zr3249   2.462       .  S
O3247      C3253   1.300       .  A
O3248     Zr3249   2.394       .  S
O3248      C3252   1.283       .  A
Zr3249     O3250   2.317       .  S
Zr3249     O3251   2.352       .  S
Zr3249     O3259   2.347       .  S
Zr3249     O3257   2.346       .  S
O3250     Zr3276   2.332       .  S
O3250     Zr3279   2.355       .  S
O3251     Zr3277   2.313       .  S
O3251     Zr3278   2.330       .  S
H3256      O3257   0.962       .  S
O3257     Zr3276   2.366       .  S
O3257     Zr3278   2.310       .  S
H3258      O3259   0.965       .  S
O3259     Zr3277   2.345       .  S
O3259     Zr3279   2.345       .  S
O3260     Zr3276   2.512       .  S
O3260      C3283   1.311       .  A
O3261     Zr3277   2.458       .  S
O3261      C3284   1.293       .  A
O3262     Zr3278   2.514       .  S
O3262      C3285   1.312       .  A
O3263     Zr3279   2.453       .  S
O3263      C3286   1.292       .  A
O3264     Zr3279   2.494       .  S
O3264      C3287   1.307       .  A
O3265     Zr3278   2.463       .  S
O3265      C3288   1.295       .  A
O3266     Zr3280   2.512       .  S
O3266      C3289   1.311       .  A
O3267     Zr3280   2.476       .  S
O3267      C3290   1.297       .  A
O3268     Zr3278   2.378       .  S
O3268      C3289   1.280       .  A
O3269     Zr3279   2.458       .  S
O3269      C3290   1.299       .  A
O3270     Zr3276   2.371       .  S
O3270      C3285   1.278       .  A
O3271     Zr3277   2.463       .  S
O3271      C3288   1.300       .  A
O3272     Zr3277   2.394       .  S
O3272      C3287   1.283       .  A
O3273     Zr3276   2.457       .  S
O3273      C3286   1.300       .  A
O3274     Zr3280   2.373       .  S
O3274      C3283   1.279       .  A
O3275     Zr3280   2.452       .  S
O3275      C3284   1.298       .  A
Zr3276     O3282   2.337       .  S
Zr3276     O3294   2.313       .  S
Zr3277     O3281   2.355       .  S
Zr3277     O3292   2.343       .  S
Zr3278     O3282   2.336       .  S
Zr3278     O3292   2.365       .  S
Zr3279     O3281   2.315       .  S
Zr3279     O3294   2.345       .  S
Zr3280     O3281   2.332       .  S
Zr3280     O3282   2.338       .  S
Zr3280     O3294   2.364       .  S
Zr3280     O3292   2.316       .  S
H3291      O3292   0.963       .  S
H3293      O3294   0.963       .  S
O3295      C3306   1.308       .  A
O3296      C3307   1.293       .  A
O3297     Zr3303   2.518       .  S
O3298     Zr3303   2.472       .  S
O3298      C3309   1.296       .  A
O3299     Zr3333   2.462       .  S
O3299      C3309   1.300       .  A
O3300     Zr3332   2.382       .  S
O3300      C3308   1.281       .  A
O3301     Zr3303   2.460       .  S
O3301      C3307   1.300       .  A
O3302     Zr3303   2.378       .  S
O3302      C3306   1.280       .  A
Zr3303     O3304   2.333       .  S
Zr3303     O3313   2.367       .  S
O3304     Zr3333   2.314       .  S
O3305     Zr3332   2.334       .  S
H3310      O3311   0.962       .  S
O3311     Zr3330   2.344       .  S
O3311     Zr3332   2.365       .  S
H3312      O3313   0.963       .  S
O3313     Zr3333   2.346       .  S
O3314     Zr3330   2.497       .  S
O3314      C3337   1.308       .  A
O3315     Zr3331   2.470       .  S
O3315      C3338   1.295       .  A
O3316     Zr3332   2.469       .  S
O3316      C3339   1.296       .  A
O3317     Zr3333   2.504       .  S
O3317      C3340   1.309       .  A
O3318      C3341   1.293       .  A
O3319      C3342   1.312       .  A
O3320     Zr3334   2.457       .  S
O3320      C3343   1.293       .  A
O3321     Zr3334   2.503       .  S
O3322      C3343   1.300       .  A
O3323      C3344   1.283   1_455  A
O3324     Zr3330   2.464       .  S
O3324      C3339   1.300       .  A
O3325     Zr3331   2.375       .  S
O3325      C3342   1.279       .  A
O3326      C3341   1.300       .  A
O3327      C3340   1.282       .  A
O3328      C3337   1.282       .  A
O3329     Zr3334   2.466       .  S
O3329      C3338   1.301       .  A
Zr3330     O3336   2.315       .  S
Zr3330     O3348   2.347       .  S
Zr3331     O3335   2.329       .  S
Zr3331     O3346   2.362       .  S
Zr3332     O3336   2.334       .  S
Zr3334     O3335   2.312       .  S
Zr3334     O3346   2.345       .  S
H3345      O3346   0.963       .  S
C3349      C3350   1.396       .  A
C3349      C3354   1.395       .  A
C3349      H3356   1.084       .  S
C3350      C3351   1.415       .  A
C3351      C3352   1.395       .  A
C3351      N3358   1.444       .  S
C3352      C3353   1.396       .  A
C3352      H3357   1.084       .  S
C3353      C3354   1.415       .  A
C3354      N3355   1.445       .  S
N3355      O3359   1.263       .  A
N3355      O3360   1.262       .  A
N3358      O3361   1.262       .  A
N3358      O3362   1.263       .  A
C3363      C3364   1.394       .  A
C3363      C3368   1.393       .  A
C3363      H3370   1.084       .  S
C3364      C3365   1.415       .  A
C3365      C3366   1.393       .  A
C3365      N3372   1.442       .  S
C3366      C3367   1.394       .  A
C3367      C3368   1.416       .  A
C3368      N3369   1.442   1_554  S
N3369      O3373   1.263       .  A
N3369      O3374   1.263       .  A
N3372      O3375   1.263       .  A
N3372      O3376   1.263       .  A
C3377      C3378   1.396       .  A
C3377      C3382   1.394       .  A
C3377      H3384   1.084       .  S
C3378      C3379   1.417       .  A
C3379      C3380   1.394       .  A
C3379      N3386   1.447       .  S
C3380      C3381   1.396       .  A
C3380      H3385   1.084       .  S
C3381      C3382   1.416       .  A
N3383      O3388   1.262       .  A
N3386      O3389   1.262       .  A
N3386      O3390   1.263       .  A
C3391      C3396   1.389   1_545  A
C3391      H3398   1.084       .  S
C3392      C3393   1.418       .  A
C3393      N3400   1.440       .  S
C3394      C3395   1.395       .  A
C3394      H3399   1.084       .  S
C3395      C3396   1.418       .  A
C3396      N3397   1.439       .  S
N3397      O3401   1.263       .  A
N3397      O3402   1.263       .  A
N3400      O3403   1.263       .  A
N3400      O3404   1.263       .  A
C3405      C3406   1.398       .  A
C3405      C3410   1.398       .  A
C3405      H3412   1.084       .  S
C3406      C3407   1.416       .  A
C3407      C3408   1.394       .  A
C3407      N3414   1.443       .  S
C3408      C3409   1.397       .  A
C3408      H3413   1.085       .  S
C3409      C3410   1.418       .  A
C3410      N3411   1.446       .  S
N3411      O3415   1.263       .  A
N3414      O3417   1.260       .  A
N3414      O3418   1.263       .  A
C3419      C3420   1.396       .  A
C3419      C3424   1.394       .  A
C3419      H3426   1.084       .  S
C3420      C3421   1.414       .  A
C3421      C3422   1.393       .  A
C3421      N3428   1.444       .  S
C3422      C3423   1.395       .  A
C3422      H3427   1.084       .  S
C3423      C3424   1.414       .  A
C3424      N3425   1.444       .  S
N3425      O3429   1.263       .  A
N3425      O3430   1.262       .  A
N3428      O3431   1.262       .  A
N3428      O3432   1.263       .  A
C3433      C3434   1.406       .  A
C3433      C3438   1.394       .  A
C3433      H3440   1.084       .  S
C3434      C3435   1.409       .  A
C3435      C3436   1.394       .  A
C3435      N3442   1.443       .  S
C3436      C3437   1.404       .  A
C3436      H3441   1.085       .  S
C3437      C3438   1.406       .  A
C3438      N3439   1.443       .  S
N3439      O3443   1.263       .  A
N3442      O3445   1.261       .  A
N3442      O3446   1.263       .  A
C3447      C3448   1.408       .  A
C3447      C3452   1.391       .  A
C3447      H3454   1.084       .  S
C3448      C3449   1.405       .  A
C3449      C3450   1.392       .  A
C3449      N3456   1.440       .  S
C3450      C3451   1.408       .  A
C3450      H3455   1.084       .  S
C3451      C3452   1.406       .  A
C3452      N3453   1.440       .  S
N3453      O3457   1.263       .  A
N3453      O3458   1.262       .  A
N3456      O3459   1.263       .  A
N3456      O3460   1.263       .  A
C3461      C3462   1.394       .  A
C3461      H3468   1.084       .  S
C3463      C3464   1.389       .  A
C3463      N3470   1.436   1_554  S
C3464      C3465   1.394       .  A
C3464      H3469   1.084       .  S
C3465      C3466   1.416       .  A
C3466      N3467   1.442   1_565  S
N3467      O3472   1.262       .  A
N3470      O3474   1.262       .  A
C3475      C3476   1.394       .  A
C3475      C3480   1.395       .  A
C3475      H3482   1.084       .  S
C3476      C3477   1.413       .  A
C3477      C3478   1.392       .  A
C3477      N3484   1.443       .  S
C3478      C3479   1.395       .  A
C3478      H3483   1.084       .  S
C3479      C3480   1.418       .  A
C3480      N3481   1.447       .  S
N3481      O3485   1.263       .  A
N3481      O3486   1.262       .  A
N3484      O3487   1.263       .  A
N3484      O3488   1.262       .  A
C3489      C3490   1.409       .  A
C3489      C3494   1.390       .  A
C3489      H3496   1.084       .  S
C3490      C3491   1.407       .  A
C3491      C3492   1.393       .  A
C3491      N3498   1.439       .  S
C3492      C3493   1.408       .  A
C3492      H3497   1.084       .  S
C3493      C3494   1.406       .  A
C3494      N3495   1.440       .  S
N3495      O3499   1.262       .  A
N3498      O3501   1.263       .  A
N3498      O3502   1.262       .  A
C3503      C3504   1.395       .  A
C3503      C3508   1.396       .  A
C3503      H3510   1.084       .  S
C3504      C3505   1.416       .  A
C3505      C3506   1.390       .  A
C3505      N3512   1.441       .  S
C3506      C3507   1.393       .  A
C3506      H3511   1.084       .  S
C3507      C3508   1.416       .  A
C3508      N3509   1.442       .  S
N3509      O3513   1.263       .  A
N3509      O3514   1.263       .  A
N3512      O3515   1.263       .  A
N3512      O3516   1.263       .  A
C3517      C3518   1.403       .  A
C3517      C3522   1.396       .  A
C3517      H3524   1.085       .  S
C3518      C3519   1.413       .  A
C3519      C3520   1.396       .  A
C3519      N3526   1.449       .  S
C3520      C3521   1.401       .  A
C3520      H3525   1.084       .  S
C3521      C3522   1.408       .  A
C3522      N3523   1.444       .  S
N3523      O3527   1.263       .  A
N3523      O3528   1.263       .  A
N3526      O3529   1.262       .  A
N3526      O3530   1.263       .  A
C3531      C3532   1.409       .  A
C3531      C3536   1.393       .  A
C3531      H3538   1.084       .  S
C3532      C3533   1.405       .  A
C3533      C3534   1.392       .  A
C3533      N3540   1.440       .  S
C3534      C3535   1.409       .  A
C3534      H3539   1.084       .  S
C3535      C3536   1.406       .  A
C3536      N3537   1.440       .  S
N3537      O3541   1.263       .  A
N3537      O3542   1.262       .  A
N3540      O3543   1.263       .  A
N3540      O3544   1.263       .  A
C3545      C3546   1.393       .  A
C3545      C3550   1.391       .  A
C3545      H3552   1.084   1_554  S
C3546      C3547   1.416       .  A
C3547      C3548   1.393       .  A
C3547      N3554   1.441       .  S
C3548      C3549   1.394       .  A
C3548      H3553   1.084       .  S
C3549      C3550   1.416       .  A
C3550      N3551   1.441   1_554  S
N3551      O3555   1.263       .  A
N3551      O3556   1.263       .  A
N3554      O3557   1.263       .  A
N3554      O3558   1.263       .  A
C3559      H3566   1.084       .  S
C3560      C3561   1.414       .  A
C3561      C3562   1.395       .  A
C3561      N3568   1.443       .  S
C3562      C3563   1.396       .  A
C3562      H3567   1.084       .  S
C3563      C3564   1.414       .  A
C3564      N3565   1.443       .  S
N3565      O3570   1.262       .  A
N3568      O3571   1.262       .  A
N3568      O3572   1.263       .  A
C3573      C3574   1.396       .  A
C3573      C3578   1.394       .  A
C3573      H3580   1.084       .  S
C3574      C3575   1.415       .  A
C3575      C3576   1.395       .  A
C3575      N3582   1.445       .  S
C3576      C3577   1.396       .  A
C3576      H3581   1.084       .  S
C3577      C3578   1.414       .  A
C3578      N3579   1.445       .  S
N3579      O3583   1.263       .  A
N3579      O3584   1.262       .  A
N3582      O3585   1.262       .  A
N3582      O3586   1.263       .  A
C3587      C3588   1.408       .  A
C3587      C3592   1.390       .  A
C3587      H3594   1.084       .  S
C3588      C3589   1.405       .  A
C3589      C3590   1.392       .  A
C3589      N3596   1.441       .  S
C3590      C3591   1.409       .  A
C3590      H3595   1.084       .  S
C3591      C3592   1.405       .  A
C3592      N3593   1.440       .  S
N3593      O3597   1.263       .  A
N3596      O3599   1.263       .  A
N3596      O3600   1.263       .  A
