geometry optimzed in LAMMPS
_audit_creation_date              2020-11-30 
_audit_creation_method            'lammps2cif' 
_symmetry_space_group_name_H-M    'P1' 
_symmetry_Int_Tables_number       1 
_symmetry_cell_setting            triclinic 
loop_ 
_symmetry_equiv_pos_as_xyz 
  x,y,z 
_cell_length_a                    37.20132938 
_cell_length_b                    37.14517367553572 
_cell_length_c                    43.45257591707735 
_cell_angle_alpha                 90.26300071434363 
_cell_angle_beta                  89.89174870087471 
_cell_angle_gamma                 120.85048272918975 
loop_ 
_atom_site_label 
_atom_site_type_symbol 
_atom_site_fract_x 
_atom_site_fract_y 
_atom_site_fract_z 
_atom_site_charge 
O1          O  0.58904905  0.99742237  0.96276586    -0.78600
C2          C  0.59824751  0.07896411  0.03924814     0.82400
O3          O  0.47786193  0.90824337  0.02920842    -0.79800
O4          O  0.46533921  0.02936777  0.04168668    -0.81200
O5          O  0.49887805  0.05380790  0.93330861    -0.81000
O6          O  0.55913376  0.00851935  0.92256443    -0.79700
Zn7        Zn  0.55950086  0.99901924  0.00038015     1.55700
O8          O  0.50131605  0.08474626  0.97811056    -0.81100
Cd9        Cd  0.50651723  0.00370415  0.94437721     1.59700
Cd10       Cd  0.45940844  0.94530346  0.00541835     1.59600
O11         O  0.45268039  0.95173363  0.92774425    -0.81000
O12         O  0.50932086  0.99910180  0.99011981    -1.91600
Cd13       Cd  0.51227414  0.04944714  0.00990257     1.59900
O14         O  0.41863274  0.91298941  0.96889731    -0.81000
O15         O  0.56729037  0.08436697  0.03558798    -0.79700
C16         C  0.51471627  0.91764790  0.03713133     0.82900
C17         C  0.58782191  0.00351462  0.93410983     0.82500
O18         O  0.59949700  0.04956103  0.02519867    -0.78600
C19         C  0.49587211  0.08128861  0.94899520     0.83300
O20         O  0.54705996  0.95055982  0.02740496    -0.78700
C21         C  0.42107596  0.92027041  0.94000392     0.83500
C22         C  0.43541240  0.99400446  0.05056383     0.83800
O23         O  0.42788718  0.95946602  0.03843662    -0.81100
O24         O  0.59263598  0.59071819  0.02514525    -0.78600
C25         C  0.59350843  0.50880587  0.95331186     0.82400
O26         O  0.47838910  0.55831618  0.95631859    -0.79800
O27         O  0.45869445  0.41939518  0.95496399    -0.81200
O28         O  0.50451778  0.44805951  0.06326790    -0.81000
O29         O  0.56022538  0.55448546  0.06693758    -0.79700
Zn30       Zn  0.55932730  0.55577991  0.98914753     1.55700
O31         O  0.50223265  0.41251299  0.02097830    -0.81100
Cd32       Cd  0.50792953  0.50236466  0.04732966     1.59700
Cd33       Cd  0.46070532  0.50610379  0.98396219     1.59600
O34         O  0.45289739  0.49830220  0.06194597    -0.81000
O35         O  0.50964278  0.50434270  0.00127847    -1.91600
Cd36       Cd  0.50905114  0.45303640  0.98510322     1.59900
O37         O  0.42112362  0.50123709  0.01912693    -0.81000
O38         O  0.56396386  0.47195610  0.96021842    -0.79700
C39         C  0.51455360  0.58968210  0.95065967     0.82900
C40         C  0.59044107  0.58684576  0.05424656     0.82500
O41         O  0.59484189  0.54173568  0.96329793    -0.78600
C42         C  0.50105788  0.41560138  0.05022078     0.83300
O43         O  0.54673854  0.59238627  0.96302577    -0.78700
C44         C  0.42201831  0.49712832  0.04818550     0.83500
C45         C  0.42928953  0.42508211  0.94606774     0.83800
O46         O  0.42603822  0.45573653  0.95549248    -0.81100
O47         O  0.41172453  0.99227217  0.47043930    -0.78600
C48         C  0.40529926  0.90573372  0.53666505     0.82400
O49         O  0.52116267  0.07444784  0.54523416    -0.79800
O50         O  0.54084096  0.95625784  0.53785079    -0.81200
O51         O  0.50587692  0.95278515  0.42905412    -0.81000
O52         O  0.45129255  0.00395003  0.42916300    -0.79700
Zn53       Zn  0.44400079  0.99137046  0.50629818     1.55700
O54         O  0.50195419  0.91284731  0.46882282    -0.81100
Cd55       Cd  0.50077142  0.00100400  0.44853708     1.59700
Cd56       Cd  0.54305586  0.04573830  0.51460583     1.59600
O57         O  0.55526517  0.05519397  0.43690009    -0.81000
O58         O  0.49524499  0.99478827  0.49431872    -1.91600
Cd59       Cd  0.49217532  0.94116283  0.50707834     1.59900
O60         O  0.58472107  0.08738579  0.48128747    -0.81000
O61         O  0.43461273  0.89929495  0.52861512    -0.79700
C62         C  0.48368514  0.06607108  0.54969110     0.82900
C63         C  0.41808675  0.99894773  0.44177200     0.82500
O64         O  0.40718150  0.93980122  0.52985122    -0.78600
C65         C  0.50709431  0.92172431  0.44017579     0.83300
O66         O  0.45342508  0.03742538  0.53441567    -0.78700
C67         C  0.58477364  0.08542588  0.45186425     0.83500
C68         C  0.57095301  0.99086060  0.54830203     0.83800
O69         O  0.57585644  0.02637818  0.54122596    -0.81100
O70         O  0.02324189  0.42923653  0.03887956    -0.78600
C71         C  0.94108932  0.41363227  0.96272950     0.82400
O72         O  0.10382133  0.54493288  0.97043016    -0.79800
O73         O  0.97899108  0.54882964  0.96031659    -0.81200
O74         O  0.95351143  0.50836439  0.06716690    -0.81000
O75         O  0.00114467  0.45291548  0.07706217    -0.79700
Zn76       Zn  0.01976606  0.45888364  0.00194440     1.55700
O77         O  0.92006969  0.49929321  0.02265519    -0.81100
Cd78       Cd  0.00625670  0.50589862  0.05640922     1.59700
Cd79       Cd  0.06510641  0.55871524  0.99682780     1.59600
O80         O  0.05666039  0.55894719  0.07483996    -0.81000
O81         O  0.01330235  0.50588590  0.01097705    -1.91600
Cd82       Cd  0.96179668  0.49871528  0.99000973     1.59900
O83         O  0.09685110  0.59606958  0.03507645    -0.81000
O84         O  0.93329272  0.44335757  0.96365229    -0.79700
C85         C  0.09831924  0.50910969  0.96323147     0.82900
C86         C  0.01118322  0.42717690  0.06651931     0.82500
O87         O  0.97095233  0.41584761  0.97826770    -0.78600
C88         C  0.92269115  0.50487553  0.05185146     0.83300
O89         O  0.06858743  0.47535679  0.97445312    -0.78700
C90         C  0.08867645  0.59133577  0.06389294     0.83500
C91         C  0.01341001  0.58252636  0.95441936     0.83800
O92         O  0.04800439  0.59142747  0.96706133    -0.81100
O93         O  0.93413048  0.39888956  0.54457485    -0.78600
C94         C  0.98930715  0.40781827  0.45288178     0.82400
O95         O  0.06934086  0.50862240  0.55339620    -0.79800
O96         O  0.04716444  0.54731290  0.45071488    -0.81200
O97         O  0.90456529  0.49090566  0.48232252    -0.81000
O98         O  0.89586290  0.42931883  0.54670821    -0.79700
Zn99       Zn  0.98288094  0.43207420  0.51724000     1.55700
O100        O  0.94529790  0.49550004  0.44289416    -0.81100
Cd101      Cd  0.93449033  0.48277511  0.52030078     1.59700
Cd102      Cd  0.03786705  0.53122863  0.52775611     1.59600
O103        O  0.95154211  0.53370804  0.54882858    -0.81000
O104        O  0.98704862  0.48432352  0.50705369    -1.91600
Cd105      Cd  0.99381601  0.49155893  0.46185857     1.59900
O106        O  0.02062007  0.56445496  0.55595922    -0.81000
O107        O  0.99716569  0.44295100  0.44212767    -0.79700
C108        C  0.06387377  0.47183622  0.55446355     0.82900
C109        C  0.90308130  0.40064880  0.55494004     0.82500
O110        O  0.97956814  0.39785693  0.48084697    -0.78600
C111        C  0.91413153  0.49676848  0.45374769     0.83300
O112        O  0.03342766  0.44173305  0.54032389    -0.78700
C113        C  0.98584305  0.56251245  0.56047611     0.83500
C114        C  0.07620499  0.57681126  0.46649484     0.85000
O115        O  0.07800170  0.57514729  0.49572443    -0.81100
N116        N  0.99935168  0.33628092  0.35224444    -0.03600
C117        C  0.03039015  0.35707966  0.33093500    -0.01000
C118        C  0.01417784  0.35544837  0.30212104    -0.23900
C119        C  0.97165399  0.33364253  0.30517371    -0.24100
C120        C  0.96315340  0.32255854  0.33575952    -0.01100
H121        H  0.03161426  0.36953959  0.28125202     0.12600
H122        H  0.94908751  0.32704246  0.28709408     0.12700
C123        C  0.54891752  0.82631654  0.35700944     0.80100
N124        N  0.57629976  0.81391184  0.36527896    -0.78200
C125        C  0.58547790  0.79124825  0.34540007     0.82500
N126        N  0.56656346  0.78105098  0.31741726    -0.78200
C127        C  0.54271833  0.79674581  0.30779370     0.82600
N128        N  0.53350121  0.81899773  0.32783649    -0.79900
C129        C  0.71634151  0.19432305  0.36751726     0.80100
N130        N  0.75803252  0.21940857  0.37395626    -0.78200
C131        C  0.78601158  0.23901511  0.35074221     0.82500
N132        N  0.77208604  0.23418773  0.32139273    -0.78200
C133        C  0.73109216  0.20876304  0.31458109     0.82600
N134        N  0.70335676  0.18818347  0.33759795    -0.79900
N135        N  0.70461751  0.70537305  0.37431479    -0.03600
C136        C  0.71109772  0.74397327  0.36672943    -0.01000
C137        C  0.75200754  0.76974937  0.35715775    -0.23900
C138        C  0.77099638  0.74641355  0.35779058    -0.24100
C139        C  0.74181175  0.70718061  0.36870824    -0.01100
H140        H  0.76583751  0.80151557  0.34873009     0.12600
H141        H  0.80256046  0.75671110  0.35028789     0.12700
C142        C  0.82612688  0.54601520  0.36985636     0.80100
N143        N  0.83073877  0.54149083  0.33924033    -0.78200
C144        C  0.81796476  0.55941753  0.31815261     0.82500
N145        N  0.80072129  0.58197577  0.32770280    -0.78200
C146        C  0.79521013  0.58625338  0.35809975     0.82600
N147        N  0.80831503  0.56845872  0.37928376    -0.79900
C148        C  0.17911658  0.71698141  0.38712013     0.80100
N149        N  0.18384720  0.70536024  0.35834563    -0.78200
C150        C  0.20573203  0.73470196  0.33664241     0.82500
N151        N  0.22164001  0.77570612  0.34346461    -0.78200
C152        C  0.21253345  0.78759065  0.37048750     0.82600
N153        N  0.19241921  0.75816477  0.39275932    -0.79900
N154        N  0.28042398  0.99381233  0.37753834    -0.03600
C155        C  0.27443127  0.02584329  0.36922481    -0.01000
C156        C  0.23299365  0.00999317  0.36133602    -0.23900
C157        C  0.21262549  0.96738778  0.36558670    -0.24100
C158        C  0.24230358  0.95785973  0.37497349    -0.01100
H159        H  0.21910054  0.02749309  0.35296397     0.12600
H160        H  0.18000159  0.94531323  0.36057279     0.12700
C161        C  0.27982326  0.48472993  0.34903892     0.80100
N162        N  0.23816974  0.46192191  0.35570686    -0.78200
C163        C  0.20952621  0.45392357  0.33333626     0.82500
N164        N  0.22250505  0.46821335  0.30451262    -0.78200
C165        C  0.26372931  0.49152880  0.29747859     0.82600
N166        N  0.29252825  0.49944163  0.31985855    -0.79900
C167        C  0.43252169  0.27536541  0.37161716     0.80100
N168        N  0.40905819  0.23372153  0.37822795    -0.78200
C169        C  0.39252417  0.20481768  0.35512398     0.82500
N170        N  0.39926949  0.21810406  0.32546799    -0.78200
C171        C  0.42335894  0.25945264  0.31870907     0.82600
N172        N  0.43984817  0.28806574  0.34181352    -0.79900
C173        C  0.56292122  0.83582956  0.12712530     0.80100
N174        N  0.54563213  0.82717060  0.15578824    -0.78200
C175        C  0.55664314  0.80739025  0.17659727     0.82500
N176        N  0.58483126  0.79637805  0.16857987    -0.78200
C177        C  0.60567768  0.80842689  0.14142256     0.82600
N178        N  0.59406691  0.82774230  0.12033907    -0.79900
C179        C  0.72253335  0.17630960  0.13296174     0.80100
N180        N  0.76417311  0.19287157  0.12741548    -0.78200
C181        C  0.79236259  0.20931328  0.15087527     0.82500
N182        N  0.77841964  0.20896077  0.17981443    -0.78200
C183        C  0.73715650  0.19307217  0.18551867     0.82600
N184        N  0.70905950  0.17623143  0.16212737    -0.79900
N185        N  0.72262842  0.71941413  0.12713307    -0.03600
C186        C  0.73073150  0.75907454  0.13317350    -0.01000
C187        C  0.77002881  0.78288073  0.14620189    -0.23900
C188        C  0.78597975  0.75714573  0.14964959    -0.24100
C189        C  0.75707288  0.71863294  0.13726911    -0.01100
H190        H  0.78431627  0.81486084  0.15441511     0.12600
H191        H  0.81544798  0.76557679  0.16044115     0.12700
C192        C  0.82719652  0.54741087  0.13427670     0.80100
N193        N  0.80885357  0.56985637  0.12658042    -0.78200
C194        C  0.79713247  0.58796305  0.14859080     0.82500
N195        N  0.80245799  0.58249202  0.17861311    -0.78200
C196        C  0.82014595  0.56001355  0.18687180     0.82600
N197        N  0.83345827  0.54344721  0.16476662    -0.79900
C198        C  0.18952580  0.71722869  0.15444061     0.80100
N199        N  0.18852972  0.70504065  0.18410749    -0.78200
C200        C  0.21029327  0.73420826  0.20626080     0.82500
N201        N  0.23254576  0.77535189  0.19863269    -0.78200
C202        C  0.23301034  0.78783614  0.16931409     0.82600
N203        N  0.21119800  0.75871453  0.14717911    -0.79900
N204        N  0.34088579  0.00052891  0.15313366    -0.03600
C205        C  0.34493837  0.03600101  0.16629391    -0.01000
C206        C  0.31662632  0.02531896  0.19012881    -0.23900
C207        C  0.29528456  0.98253669  0.19246470    -0.24100
C208        C  0.30995881  0.96771818  0.16937019    -0.01100
H209        H  0.31267692  0.04665632  0.20485237     0.12600
H210        H  0.27117499  0.96401598  0.20915147     0.12700
C211        C  0.27884901  0.46343977  0.12117707     0.80100
N212        N  0.23905257  0.43004614  0.11819489    -0.78200
C213        C  0.20937263  0.42390015  0.13937470     0.82500
N214        N  0.22035139  0.45085071  0.16346444    -0.78200
C215        C  0.26059568  0.48158356  0.16815866     0.82600
N216        N  0.28949344  0.48870577  0.14634038    -0.79900
C217        C  0.46113998  0.28395141  0.13796328     0.80100
N218        N  0.45789594  0.29646072  0.16683690    -0.78200
C219        C  0.44136834  0.26803147  0.18984178     0.82500
N220        N  0.42858120  0.22750102  0.18403067    -0.78200
C221        C  0.43425671  0.21472492  0.15615829     0.82600
N222        N  0.44985496  0.24305041  0.13266123    -0.79900
N223        N  0.00268156  0.29310348  0.13855620    -0.03600
C224        C  0.03583165  0.28811739  0.14485891    -0.01000
C225        C  0.02182247  0.24971229  0.15869356    -0.23900
C226        C  0.97918336  0.23089404  0.16183139    -0.24100
C227        C  0.96786238  0.25761039  0.14889446    -0.01100
H228        H  0.04086144  0.23735121  0.16681492     0.12600
H229        H  0.95872491  0.20105048  0.17240955     0.12700
O230        O  0.56293076  0.59023131  0.47340824    -0.78600
C231        C  0.47388150  0.58621946  0.54283381     0.82400
O232        O  0.54009325  0.48098946  0.54335042    -0.79800
O233        O  0.39190308  0.44678906  0.53721654    -0.81200
O234        O  0.43521658  0.50438501  0.43140269    -0.81000
O235        O  0.53853097  0.54540555  0.43409216    -0.79700
Zn236      Zn  0.52825325  0.55790022  0.51025782     1.55700
O237        O  0.39172070  0.49637864  0.46959235    -0.81100
Cd238      Cd  0.48226578  0.49947365  0.45222114     1.59700
Cd239      Cd  0.48604437  0.45769883  0.51644901     1.59600
O240        O  0.47168480  0.44112873  0.44024512    -0.81000
O241        O  0.48083864  0.50431601  0.49775410    -1.91600
Cd242      Cd  0.42637115  0.50009099  0.50944251     1.59900
O243        O  0.48136835  0.41450964  0.48323364    -0.81000
O244        O  0.43932930  0.55316116  0.53561364    -0.79700
C245        C  0.56787322  0.51872507  0.55012991     0.82900
C246        C  0.56541901  0.58073540  0.44555314     0.82500
O247        O  0.50908144  0.59209822  0.53372758    -0.78600
C248        C  0.40070831  0.49980444  0.44085036     0.83300
O249        O  0.56646377  0.54968494  0.53898180    -0.78700
C250        C  0.47279667  0.41189110  0.45458511     0.83500
C251        C  0.40082568  0.42101066  0.54942780     0.83800
O252        O  0.43546792  0.42275750  0.54472158    -0.81100
C253        C  0.50592144  0.71574894  0.63246042     0.80100
N254        N  0.53584081  0.75580882  0.62494289    -0.78200
C255        C  0.55462702  0.78621163  0.64684627     0.82500
N256        N  0.54442642  0.77602553  0.67675095    -0.78200
C257        C  0.51467609  0.73676658  0.68483181     0.82600
N258        N  0.49556875  0.70690638  0.66272345    -0.79900
C259        C  0.70659696  0.55738031  0.63236549     0.80100
N260        N  0.74651014  0.57564576  0.62115580    -0.78200
C261        C  0.77934011  0.58746355  0.64075527     0.82500
N262        N  0.77176439  0.58065840  0.67127099    -0.78200
C263        C  0.73249982  0.56274270  0.68268094     0.82600
N264        N  0.69979146  0.55109879  0.66322528    -0.79900
N265        N  0.69589806  0.99117310  0.62611764    -0.03600
C266        C  0.69624538  0.95551582  0.63296980    -0.01000
C267        C  0.73553543  0.96547030  0.64287929    -0.23900
C268        C  0.76028633  0.00844441  0.64193633    -0.24100
C269        C  0.73521498  0.02376730  0.63219090    -0.01100
H270        H  0.74469344  0.94397376  0.65139118     0.12600
H271        H  0.79212816  0.02677490  0.65024290     0.12700
C272        C  0.81662222  0.27057594  0.64513760     0.80100
N273        N  0.80167959  0.22969058  0.63711877    -0.78200
C274        C  0.78632243  0.19894135  0.65890642     0.82500
N275        N  0.78686930  0.21049543  0.68861239    -0.78200
C276        C  0.80530439  0.25124509  0.69719633     0.82600
N277        N  0.81930095  0.28123160  0.67533887    -0.79900
C278        C  0.16911172  0.44290100  0.63640035     0.80100
N279        N  0.18195846  0.41506485  0.63144729    -0.78200
C280        C  0.20376229  0.40814053  0.65336378     0.82500
N281        N  0.21156915  0.42902869  0.68058391    -0.78200
C282        C  0.19590619  0.45427620  0.68663507     0.82600
N283        N  0.17518290  0.46158876  0.66429872    -0.79900
N284        N  0.28440678  0.28423172  0.62603408    -0.03600
C285        C  0.24695311  0.27845601  0.63602941    -0.01000
C286        C  0.22241614  0.23845667  0.64763735    -0.23900
C287        C  0.24550355  0.21926300  0.64564288    -0.24100
C288        C  0.28330484  0.24746580  0.63212400    -0.01100
H289        H  0.19181418  0.22544450  0.65808176     0.12600
H290        H  0.23617631  0.18829701  0.65404930     0.12700
C291        C  0.43161647  0.14912302  0.63668801     0.80100
N292        N  0.41264917  0.16975658  0.62596752    -0.78200
C293        C  0.39443885  0.18395019  0.64602946     0.82500
N294        N  0.39506306  0.17692803  0.67661937    -0.78200
C295        C  0.41432734  0.15692043  0.68740361     0.82600
N296        N  0.43269315  0.14311969  0.66742617    -0.79900
C297        C  0.26853344  0.80744573  0.62176484     0.80100
N298        N  0.28039691  0.80514044  0.65094205    -0.78200
C299        C  0.25160700  0.78694432  0.67368035     0.82500
N300        N  0.21065589  0.77201083  0.66732452    -0.78200
C301        C  0.19835892  0.77716233  0.63911640     0.82600
N302        N  0.22737576  0.79375981  0.61619123    -0.79900
N303        N  0.99109212  0.70161779  0.62313030    -0.03600
C304        C  0.95718085  0.70535534  0.62992113    -0.01000
C305        C  0.97061306  0.74590631  0.63936100    -0.23900
C306        C  0.01353220  0.76801970  0.63753466    -0.24100
C307        C  0.02578125  0.74020803  0.62825851    -0.01100
H308        H  0.95127403  0.75817337  0.64702575     0.12600
H309        H  0.03381537  0.80057942  0.64380320     0.12700
N310        N  0.00757787  0.69976322  0.87093686    -0.03600
C311        C  0.97370263  0.70331936  0.86377467    -0.01000
C312        C  0.98667585  0.74219166  0.85121689    -0.23900
C313        C  0.02955704  0.76368045  0.85100613    -0.24100
C314        C  0.04182013  0.73699548  0.86260769    -0.01100
H315        H  0.96696617  0.75314096  0.84197348     0.12600
H316        H  0.04968657  0.79432386  0.84110196     0.12700
C317        C  0.43367435  0.16267454  0.87071470     0.80100
N318        N  0.41440646  0.18436555  0.87873376    -0.78200
C319        C  0.39768166  0.19717845  0.85644379     0.82500
N320        N  0.40046599  0.18859668  0.82656362    -0.78200
C321        C  0.41942216  0.16726847  0.81841095     0.82600
N322        N  0.43580104  0.15406770  0.84043799    -0.79900
C323        C  0.28714720  0.82299545  0.85344928     0.80100
N324        N  0.24617958  0.80772018  0.86084080    -0.78200
C325        C  0.21514825  0.78355843  0.84050993     0.82500
N326        N  0.22595916  0.77480096  0.81298520    -0.78200
C327        C  0.26642265  0.79300379  0.80399957     0.82600
N328        N  0.29724992  0.81686361  0.82449283    -0.79900
C329        C  0.53615585  0.71877487  0.86444055     0.80100
N330        N  0.51733477  0.70816905  0.83635734    -0.78200
C331        C  0.52618187  0.73841566  0.81517604     0.82500
N332        N  0.55387243  0.77913758  0.82229951    -0.78200
C333        C  0.57481648  0.78982611  0.84951130     0.82600
N334        N  0.56564157  0.75937723  0.87055773    -0.79900
C335        C  0.72486704  0.54718555  0.86542575     0.80100
N336        N  0.76600180  0.56842217  0.87382436    -0.78200
C337        C  0.79655094  0.58305567  0.85200354     0.82500
N338        N  0.78559650  0.57741400  0.82186598    -0.78200
C339        C  0.74488532  0.55638177  0.81322201     0.82600
N340        N  0.71466527  0.54030244  0.83505285    -0.79900
N341        N  0.71882493  0.99417877  0.87060947    -0.03600
C342        C  0.71930602  0.95808752  0.86552473    -0.01000
C343        C  0.75927112  0.96764787  0.85756542    -0.23900
C344        C  0.78375646  0.01048245  0.85633627    -0.24100
C345        C  0.75872651  0.02630660  0.86488788    -0.01100
H346        H  0.76901152  0.94562647  0.85141843     0.12600
H347        H  0.81621150  0.02812363  0.84934587     0.12700
C348        C  0.85153665  0.27526420  0.87724510     0.80100
N349        N  0.85236764  0.28663933  0.84740167    -0.78200
C350        C  0.83934568  0.25732066  0.82477280     0.82500
N351        N  0.82553892  0.21697891  0.83202247    -0.78200
C352        C  0.82318781  0.20492200  0.86162831     0.82600
N353        N  0.83684422  0.23428125  0.88442185    -0.79900
C354        C  0.18287021  0.47086506  0.86832166     0.80100
N355        N  0.20194895  0.44843367  0.87461462    -0.78200
C356        C  0.21293297  0.43157275  0.85100429     0.82500
N357        N  0.20240418  0.43537179  0.82201579    -0.78200
C358        C  0.18703260  0.46019722  0.81537708     0.82600
N359        N  0.17778355  0.47865877  0.83848157    -0.79900
N360        N  0.30603515  0.31473445  0.85797378    -0.03600
C361        C  0.27360070  0.31665314  0.84512088    -0.01000
C362        C  0.25208799  0.28389666  0.82463382    -0.23900
C363        C  0.27168624  0.26108712  0.82463563    -0.24100
C364        C  0.30412127  0.27985274  0.84568912    -0.01100
H365        H  0.22523550  0.27759408  0.81084382     0.12600
H366        H  0.26267674  0.23314568  0.81114268     0.12700
C367        C  0.26134377  0.41001433  0.83003108    -0.02000
C368        C  0.23577505  0.40850825  0.85479844     0.07700
C369        C  0.22638637  0.37892174  0.87846623    -0.02100
C370        C  0.24132258  0.35068566  0.87646471    -0.02100
C371        C  0.26290519  0.34979952  0.84989678     0.07800
C372        C  0.26972590  0.37771181  0.82572058    -0.02300
Br373      Br  0.28569016  0.36945435  0.78497194    -0.00900
Br374      Br  0.28668536  0.45696561  0.80190012    -0.00900
Br375      Br  0.22631285  0.30894445  0.90780127    -0.00900
Br376      Br  0.19077937  0.37441235  0.91238939    -0.00900
C377        C  0.75271047  0.08881996  0.85091220    -0.02000
C378        C  0.77417314  0.07228734  0.86662117     0.07700
C379        C  0.81178250  0.10038487  0.88254848    -0.02100
C380        C  0.82721208  0.14394583  0.88235730    -0.02100
C381        C  0.80423333  0.15960731  0.86781460     0.07800
C382        C  0.76583149  0.13147173  0.85354524    -0.02300
Br383      Br  0.73096794  0.15147974  0.83706123    -0.00900
Br384      Br  0.71123500  0.05624394  0.82030402    -0.00900
Br385      Br  0.88135276  0.18220516  0.89996427    -0.00900
Br386      Br  0.84359558  0.08041776  0.90419673    -0.00900
C387        C  0.61861296  0.85404658  0.88250456    -0.02000
C388        C  0.61174762  0.83276862  0.85405801     0.07700
C389        C  0.64118168  0.85237526  0.83005940    -0.02100
C390        C  0.67502277  0.89361615  0.83368325    -0.02100
C391        C  0.68226916  0.91475714  0.86229470     0.07800
C392        C  0.65476188  0.89391775  0.88703296    -0.02300
Br393      Br  0.66790045  0.91791017  0.92778140    -0.00900
Br394      Br  0.57767656  0.82981565  0.91507308    -0.00900
Br395      Br  0.70946844  0.92173759  0.79809114    -0.00900
Br396      Br  0.63769699  0.82248211  0.79250077    -0.00900
C397        C  0.37379297  0.28300932  0.84920856    -0.02000
C398        C  0.33008498  0.26120448  0.85436408     0.07700
C399        C  0.31006281  0.21898002  0.86458687    -0.02100
C400        C  0.33325336  0.19894496  0.86855969    -0.02100
C401        C  0.37664786  0.22089193  0.86317760     0.07800
C402        C  0.39703915  0.26340858  0.85482209    -0.02300
Br403      Br  0.45689165  0.29354588  0.84839875    -0.00900
Br404      Br  0.40130168  0.33619285  0.82868332    -0.00900
Br405      Br  0.30500926  0.14004479  0.87840375    -0.00900
Br406      Br  0.25021263  0.18693229  0.87153727    -0.00900
C407        C  0.14289546  0.76480975  0.82183799    -0.02000
C408        C  0.17018642  0.76989918  0.84662225     0.07700
C409        C  0.15380421  0.76188072  0.87700352    -0.02100
C410        C  0.11227797  0.75198417  0.88255954    -0.02100
C411        C  0.08509804  0.74529980  0.85780912     0.07800
C412        C  0.10042820  0.75057924  0.82741410    -0.02300
Br413      Br  0.06274307  0.73737083  0.79273877    -0.00900
Br414      Br  0.16239187  0.78018783  0.77982081    -0.00900
Br415      Br  0.09428706  0.75123453  0.92422051    -0.00900
Br416      Br  0.18666455  0.76217172  0.91151984    -0.00900
C417        C  0.85565802  0.64638645  0.87808453    -0.02000
C418        C  0.84155332  0.60993189  0.85993942     0.07700
C419        C  0.87113987  0.60333671  0.84454257    -0.02100
C420        C  0.91400490  0.63390442  0.84572112    -0.02100
C421        C  0.92862009  0.66954059  0.86482660     0.07800
C422        C  0.89887421  0.67620433  0.88029456    -0.02300
Br423      Br  0.91598449  0.72855804  0.90133710    -0.00900
Br424      Br  0.81589206  0.65815010  0.89743220    -0.00900
Br425      Br  0.95029866  0.63139797  0.81532792    -0.00900
Br426      Br  0.85298408  0.55265983  0.82079062    -0.00900
C427        C  0.25234478  0.75251635  0.75535435    -0.02000
C428        C  0.27458492  0.79148390  0.77071960     0.07700
C429        C  0.29581854  0.82869841  0.75322569    -0.02100
C430        C  0.29106900  0.82699612  0.72091434    -0.02100
C431        C  0.26456039  0.78822679  0.70608723     0.07800
C432        C  0.24649973  0.75090493  0.72330742    -0.02300
Br433      Br  0.21222038  0.69742516  0.70318158    -0.00900
Br434      Br  0.22864671  0.70111793  0.77861856    -0.00900
Br435      Br  0.31716981  0.87849784  0.69763213    -0.00900
Br436      Br  0.32787066  0.88258414  0.77330003    -0.00900
C437        C  0.13223854  0.75289121  0.60730955    -0.02000
C438        C  0.15499882  0.76964361  0.63499426     0.07700
C439        C  0.13578069  0.77927671  0.65929090    -0.02100
C440        C  0.09329363  0.76729701  0.65748741    -0.02100
C441        C  0.07054197  0.75082914  0.62974991     0.07800
C442        C  0.09141537  0.74629463  0.60412880    -0.02300
Br443      Br  0.06674278  0.73568795  0.56378603    -0.00900
Br444      Br  0.15545514  0.73689574  0.57382245    -0.00900
Br445      Br  0.06618749  0.77116322  0.69445012    -0.00900
Br446      Br  0.16782968  0.81253010  0.69440247    -0.00900
C447        C  0.38478611  0.12405760  0.73830494    -0.02000
C448        C  0.41872142  0.15436499  0.72084941     0.07700
C449        C  0.45514330  0.18549923  0.73573628    -0.02100
C450        C  0.45657197  0.18806133  0.76806635    -0.02100
C451        C  0.42175525  0.15913060  0.78552671     0.07800
C452        C  0.38618016  0.12662809  0.77065424    -0.02300
Br453      Br  0.33838842  0.08743286  0.79469833    -0.00900
Br454      Br  0.33606748  0.07986004  0.71777380    -0.00900
Br455      Br  0.50466392  0.23344943  0.78829863    -0.00900
Br456      Br  0.50195574  0.22625927  0.71164532    -0.00900
C457        C  0.38187054  0.24374176  0.64977054    -0.02000
C458        C  0.37250686  0.20578058  0.63548082     0.07700
C459        C  0.33756890  0.18554354  0.61576153    -0.02100
C460        C  0.30992011  0.20089249  0.61287024    -0.02100
C461        C  0.31774012  0.23779430  0.62877478     0.07800
C462        C  0.35418854  0.25894722  0.64721289    -0.02300
Br463      Br  0.36269016  0.30341183  0.67440880    -0.00900
Br464      Br  0.43241828  0.27430927  0.67406715    -0.00900
Br465      Br  0.25851536  0.16741379  0.59014818    -0.00900
Br466      Br  0.32518724  0.13439411  0.59488780    -0.00900
C467        C  0.21903379  0.49704312  0.73493170    -0.02000
C468        C  0.18901779  0.46120355  0.71885381     0.07700
C469        C  0.15340608  0.42973588  0.73424695    -0.02100
C470        C  0.15001207  0.43207323  0.76624992    -0.02100
C471        C  0.18170268  0.46629177  0.78279346     0.07800
C472        C  0.21516631  0.49976468  0.76697433    -0.02300
Br473      Br  0.25780994  0.54710937  0.78975007    -0.00900
Br474      Br  0.26666595  0.54071318  0.71331967    -0.00900
Br475      Br  0.10419177  0.38624050  0.78793192    -0.00900
Br476      Br  0.11077028  0.38176952  0.71182411    -0.00900
C477        C  0.22988044  0.33134919  0.61455265    -0.02000
C478        C  0.23576745  0.31155570  0.63996941     0.07700
C479        C  0.22913090  0.32209230  0.66991092    -0.02100
C480        C  0.21671355  0.35180548  0.67424993    -0.02100
C481        C  0.21502824  0.37497025  0.64885133     0.07800
C482        C  0.22283543  0.36489153  0.61893224    -0.02300
Br483      Br  0.22670852  0.39777655  0.58331795    -0.00900
Br484      Br  0.22573692  0.30936299  0.57371658    -0.00900
Br485      Br  0.19931719  0.35707037  0.71526114    -0.00900
Br486      Br  0.23860381  0.29700011  0.70568693    -0.00900
C487        C  0.86214109  0.25951187  0.77093590    -0.02000
C488        C  0.83857663  0.26759559  0.79225712     0.07700
C489        C  0.80832866  0.27677725  0.78178321    -0.02100
C490        C  0.79905977  0.27409274  0.75013587    -0.02100
C491        C  0.82021820  0.26250745  0.72912533     0.07800
C492        C  0.85317712  0.25721510  0.73939122    -0.02300
Br493      Br  0.88488228  0.24475882  0.71050865    -0.00900
Br494      Br  0.90532234  0.24938234  0.78526360    -0.00900
Br495      Br  0.75518964  0.28287071  0.73573529    -0.00900
Br496      Br  0.77674759  0.28881738  0.81097432    -0.00900
C497        C  0.75469161  0.08312554  0.66870342    -0.02000
C498        C  0.74681369  0.06810010  0.63815502     0.07700
C499        C  0.75227614  0.09583787  0.61421188    -0.02100
C500        C  0.76309422  0.13762934  0.62075647    -0.02100
C501        C  0.77290440  0.15377971  0.65143874     0.07800
C502        C  0.76972930  0.12569984  0.67524616    -0.02300
Br503      Br  0.78800214  0.14313201  0.71737183    -0.00900
Br504      Br  0.74305967  0.04449535  0.70246617    -0.00900
Br505      Br  0.76246121  0.17068295  0.58673008    -0.00900
Br506      Br  0.74752448  0.07746069  0.57209190    -0.00900
C507        C  0.71066929  0.51996804  0.76369808    -0.02000
C508        C  0.73428176  0.55739830  0.78066127     0.07700
C509        C  0.75091277  0.59643071  0.76580352    -0.02100
C510        C  0.74799110  0.59802959  0.73369700    -0.02100
C511        C  0.72719979  0.56059910  0.71636887     0.07800
C512        C  0.70699195  0.52159449  0.73150288    -0.02300
Br513      Br  0.67754702  0.47043167  0.70786854    -0.00900
Br514      Br  0.68622930  0.46651641  0.78414244    -0.00900
Br515      Br  0.77371722  0.65175039  0.71330778    -0.00900
Br516      Br  0.77744105  0.64791947  0.78946325    -0.00900
C517        C  0.83890907  0.65079025  0.61496614    -0.02000
C518        C  0.82387804  0.61266134  0.63084457     0.07700
C519        C  0.85294550  0.60319957  0.64352928    -0.02100
C520        C  0.89599197  0.63349936  0.64396027    -0.02100
C521        C  0.91160180  0.67172615  0.62795793     0.07800
C522        C  0.88245179  0.67963970  0.61281867    -0.02300
Br523      Br  0.90104613  0.73104928  0.59026793    -0.00900
Br524      Br  0.80009244  0.66588934  0.59873997    -0.00900
Br525      Br  0.93072712  0.62530746  0.67225881    -0.00900
Br526      Br  0.83346857  0.54865581  0.66149797    -0.00900
C527        C  0.48298083  0.73480167  0.73588664    -0.02000
C528        C  0.50908060  0.72609096  0.71779364     0.07700
C529        C  0.53584133  0.71483785  0.73207918    -0.02100
C530        C  0.53855922  0.71504907  0.76439189    -0.02100
C531        C  0.51508053  0.72732822  0.78248079     0.07800
C532        C  0.48612127  0.73561748  0.76823272    -0.02300
Br533      Br  0.45216806  0.74977853  0.79314396    -0.00900
Br534      Br  0.44484026  0.74802260  0.71613072    -0.00900
Br535      Br  0.57711270  0.70192612  0.78367099    -0.00900
Br536      Br  0.57151024  0.70281436  0.70719334    -0.00900
C537        C  0.62302129  0.83723443  0.62097857    -0.02000
C538        C  0.58838683  0.82964232  0.63931583     0.07700
C539        C  0.58924088  0.86362520  0.65472840    -0.02100
C540        C  0.62532734  0.90369775  0.65387307    -0.02100
C541        C  0.65876378  0.91220465  0.63404568     0.07800
C542        C  0.65785671  0.87837696  0.61810612    -0.02300
Br543      Br  0.70574943  0.88690653  0.59467765    -0.00900
Br544      Br  0.62495484  0.79115611  0.60188913    -0.00900
Br545      Br  0.63249199  0.94318865  0.68553466    -0.00900
Br546      Br  0.54088300  0.85595439  0.67724693    -0.00900
C547        C  0.46047183  0.60676151  0.59458502    -0.02000
C548        C  0.47404774  0.61781865  0.56404859     0.07700
C549        C  0.49131765  0.65972195  0.55487781    -0.02100
C550        C  0.49714129  0.69083751  0.57648607    -0.02100
C551        C  0.48956005  0.68110056  0.60846687     0.07800
C552        C  0.46850153  0.63779893  0.61688432    -0.02300
Br553      Br  0.44976305  0.61817082  0.65843331    -0.00900
Br554      Br  0.43279708  0.54860911  0.60631817    -0.00900
Br555      Br  0.51198117  0.74536262  0.56062104    -0.00900
Br556      Br  0.50648981  0.67417456  0.51223989    -0.00900
C557        C  0.61299409  0.55650211  0.59612375    -0.02000
C558        C  0.60252479  0.52727675  0.57178553     0.07700
C559        C  0.62589153  0.50717697  0.56806889    -0.02100
C560        C  0.65969183  0.51684296  0.58798705    -0.02100
C561        C  0.67094665  0.54707968  0.61148550     0.07800
C562        C  0.64736259  0.56677009  0.61552354    -0.02300
Br563      Br  0.66308715  0.60921128  0.64699771    -0.00900
Br564      Br  0.57884248  0.58090917  0.60436854    -0.00900
Br565      Br  0.68971566  0.48740436  0.58387900    -0.00900
Br566      Br  0.61298883  0.46745839  0.53501555    -0.00900
C567        C  0.31729112  0.31278365  0.57541664    -0.02000
C568        C  0.31463308  0.31889686  0.60732692     0.07700
C569        C  0.33918499  0.35993045  0.61966319    -0.02100
C570        C  0.36824863  0.39296579  0.60088302    -0.02100
C571        C  0.36984673  0.38676526  0.56911722     0.07800
C572        C  0.34400017  0.34670764  0.55640920    -0.02300
Br573      Br  0.34507072  0.33851759  0.51267382    -0.00900
Br574      Br  0.28119195  0.25905050  0.55659339    -0.00900
Br575      Br  0.40782590  0.44615117  0.61897854    -0.00900
Br576      Br  0.33309691  0.37272770  0.66167368    -0.00900
C577        C  0.14227546  0.37100444  0.11214671    -0.02000
C578        C  0.16670063  0.38565729  0.13924816     0.07700
C579        C  0.14902308  0.36490989  0.16738230    -0.02100
C580        C  0.10630388  0.33412639  0.16913761    -0.02100
C581        C  0.08126820  0.32068549  0.14225726     0.07800
C582        C  0.10038479  0.33730040  0.11355446    -0.02300
Br583      Br  0.07106816  0.31156732  0.07594695    -0.00900
Br584      Br  0.16492049  0.39784371  0.07313467    -0.00900
Br585      Br  0.08205370  0.31290665  0.20929891    -0.00900
Br586      Br  0.18340543  0.37642074  0.20376578    -0.00900
C587        C  0.40361468  0.10671494  0.18299627    -0.02000
C588        C  0.37639208  0.08089619  0.15927001     0.07700
C589        C  0.37521959  0.09987149  0.13141654    -0.02100
C590        C  0.39838302  0.14409889  0.12826077    -0.02100
C591        C  0.42248101  0.16975766  0.15314255     0.07800
C592        C  0.42822329  0.15034315  0.17907235    -0.02300
Br593      Br  0.47044587  0.18354544  0.20958757    -0.00900
Br594      Br  0.40533002  0.08348602  0.22249367    -0.00900
Br595      Br  0.39526437  0.16872717  0.09020005    -0.00900
Br596      Br  0.33729758  0.06651141  0.09911204    -0.00900
C597        C  0.29707705  0.85875747  0.16638236    -0.02000
C598        C  0.25344466  0.83318960  0.16303294     0.07700
C599        C  0.22896982  0.85172711  0.15908280    -0.02100
C600        C  0.24789561  0.89570021  0.15934751    -0.02100
C601        C  0.29176416  0.92176729  0.16386656     0.07800
C602        C  0.31604887  0.90272973  0.16772448    -0.02300
Br603      Br  0.37364261  0.93509565  0.18012190    -0.00900
Br604      Br  0.33059662  0.83295356  0.17034994    -0.00900
Br605      Br  0.21248842  0.91953530  0.15511874    -0.00900
Br606      Br  0.16886190  0.81676318  0.15608180    -0.00900
C607        C  0.73621573  0.64370407  0.14988055    -0.02000
C608        C  0.76454095  0.68260145  0.13604995     0.07700
C609        C  0.80340039  0.68904576  0.12494757    -0.02100
C610        C  0.81375626  0.65775171  0.12855651    -0.02100
C611        C  0.78426936  0.61837744  0.14067540     0.07800
C612        C  0.74505832  0.61109536  0.15050083    -0.02300
Br613      Br  0.70422280  0.55667252  0.16647638    -0.00900
Br614      Br  0.68971639  0.63690841  0.17380477    -0.00900
Br615      Br  0.87043249  0.67098370  0.12085141    -0.00900
Br616      Br  0.84428523  0.74129962  0.10589516    -0.00900
C617        C  0.86816679  0.26198418  0.16026336    -0.02000
C618        C  0.83757501  0.22419321  0.14621904     0.07700
C619        C  0.85027575  0.19835350  0.13176726    -0.02100
C620        C  0.89271617  0.20952848  0.13228429    -0.02100
C621        C  0.92331634  0.24717596  0.14682917     0.07800
C622        C  0.91023536  0.27232134  0.16179858    -0.02300
Br623      Br  0.94729880  0.31621340  0.18950116    -0.00900
Br624      Br  0.85274896  0.30045404  0.17718265    -0.00900
Br625      Br  0.90777457  0.17117228  0.11440786    -0.00900
Br626      Br  0.80966135  0.14604293  0.11270899    -0.00900
C627        C  0.66521134  0.80309086  0.16328363    -0.02000
C628        C  0.64223795  0.80223502  0.13699435     0.07700
C629        C  0.65262455  0.79183297  0.10815563    -0.02100
C630        C  0.68243371  0.77888263  0.10648644    -0.02100
C631        C  0.70009409  0.77370693  0.13361178     0.07800
C632        C  0.69141592  0.78630810  0.16204172    -0.02300
Br633      Br  0.71224825  0.77742722  0.20045666    -0.00900
Br634      Br  0.66493981  0.83099623  0.20094889    -0.00900
Br635      Br  0.70060841  0.77046194  0.06699099    -0.00900
Br636      Br  0.62718752  0.79542496  0.07061396    -0.00900
C637        C  0.47069528  0.28630395  0.27306850    -0.02000
C638        C  0.43113792  0.27263541  0.28625448     0.07700
C639        C  0.39770658  0.26696744  0.26754336    -0.02100
C640        C  0.40265684  0.27075289  0.23539695    -0.02100
C641        C  0.44097998  0.28025060  0.22200919     0.07800
C642        C  0.47564259  0.29033784  0.24091277    -0.02300
Br643      Br  0.52885673  0.30598337  0.22246618    -0.00900
Br644      Br  0.51684032  0.29510662  0.29868656    -0.00900
Br645      Br  0.35637129  0.26033202  0.20932462    -0.00900
Br646      Br  0.34468879  0.25223241  0.28594629    -0.00900
C647        C  0.42138866  0.35088379  0.42332367    -0.02000
C648        C  0.46128392  0.37312929  0.43718894     0.07700
C649        C  0.49046158  0.36030105  0.43182126    -0.02100
C650        C  0.48047189  0.32689352  0.41124541    -0.02100
C651        C  0.44163087  0.30680354  0.39582666     0.07800
C652        C  0.41204861  0.31872786  0.40203562    -0.02300
Br653      Br  0.35958914  0.29280033  0.37991624    -0.00900
Br654      Br  0.37877074  0.36347044  0.43426913    -0.00900
Br655      Br  0.52040871  0.30969053  0.40302090    -0.00900
Br656      Br  0.54460678  0.38974327  0.45136964    -0.00900
C657        C  0.25069880  0.51594071  0.24749687    -0.02000
C658        C  0.27514871  0.50397303  0.26469138     0.07700
C659        C  0.30393683  0.49640209  0.24888641    -0.02100
C660        C  0.30275163  0.49351142  0.21644301    -0.02100
C661        C  0.27305193  0.49865739  0.19974944     0.07800
C662        C  0.24925234  0.51273657  0.21523581    -0.02300
Br663      Br  0.21297255  0.52572097  0.19215485    -0.00900
Br664      Br  0.21833928  0.53619414  0.26806082    -0.00900
Br665      Br  0.33894855  0.47795723  0.19577087    -0.00900
Br666      Br  0.34324614  0.48699928  0.27095285    -0.00900
C667        C  0.34944723  0.51986875  0.42041531    -0.02000
C668        C  0.36997774  0.49681687  0.41728247     0.07700
C669        C  0.36112645  0.47065725  0.39103834    -0.02100
C670        C  0.33046561  0.46559356  0.36963768    -0.02100
C671        C  0.31083383  0.48923194  0.37247242     0.07800
C672        C  0.32043599  0.51645604  0.39785721    -0.02300
Br673      Br  0.29414049  0.54954953  0.40127217    -0.00900
Br674      Br  0.36311984  0.55852930  0.45428506    -0.00900
Br675      Br  0.31276748  0.42349234  0.33770888    -0.00900
Br676      Br  0.39046867  0.44112649  0.38352360    -0.00900
C677        C  0.30064974  0.10145167  0.38390142    -0.02000
C678        C  0.30680896  0.07168127  0.36783492     0.07700
C679        C  0.34142021  0.08643243  0.34776572    -0.02100
C680        C  0.37090634  0.12967412  0.34540579    -0.02100
C681        C  0.36494735  0.15924552  0.36163616     0.07800
C682        C  0.32988978  0.14479474  0.38123023    -0.02300
Br683      Br  0.31972975  0.18410931  0.40308851    -0.00900
Br684      Br  0.25059886  0.08393416  0.40809241    -0.00900
Br685      Br  0.41992954  0.14815861  0.31983963    -0.00900
Br686      Br  0.34499688  0.04889107  0.31907460    -0.00900
C687        C  0.24298469  0.73402810  0.25622665    -0.02000
C688        C  0.20649492  0.72296702  0.23918714     0.07700
C689        C  0.16814079  0.70840168  0.25471410    -0.02100
C690        C  0.16700518  0.70786927  0.28712682    -0.02100
C691        C  0.20439923  0.72296151  0.30404279     0.07800
C692        C  0.24204580  0.73456783  0.28858421    -0.02300
Br693      Br  0.29273076  0.75335728  0.31193034    -0.00900
Br694      Br  0.29466819  0.74997709  0.23512425    -0.00900
Br695      Br  0.11495747  0.69083720  0.30823571    -0.00900
Br696      Br  0.11805731  0.69406404  0.23196464    -0.00900
C697        C  0.23254611  0.85428241  0.40038917    -0.02000
C698        C  0.21826302  0.83040966  0.37291684     0.07700
C699        C  0.20989795  0.84811047  0.34700368    -0.02100
C700        C  0.21963393  0.89000467  0.34763725    -0.02100
C701        C  0.23395818  0.91393020  0.37505383     0.07800
C702        C  0.23837044  0.89501437  0.40180057    -0.02300
Br703      Br  0.24873572  0.92282172  0.44103302    -0.00900
Br704      Br  0.24603400  0.83245732  0.43595668    -0.00900
Br705      Br  0.21578815  0.91512107  0.30967242    -0.00900
Br706      Br  0.18204047  0.81499323  0.31068924    -0.00900
C707        C  0.85768821  0.58841559  0.23651571    -0.02000
C708        C  0.82501467  0.55495651  0.21997597     0.07700
C709        C  0.79257105  0.52076493  0.23597117    -0.02100
C710        C  0.79200055  0.52077733  0.26840376    -0.02100
C711        C  0.82321716  0.55551066  0.28487112     0.07800
C712        C  0.85650245  0.58898985  0.26890888    -0.02300
Br713      Br  0.89896707  0.63684524  0.29138435    -0.00900
Br714      Br  0.90270917  0.63459353  0.21453618    -0.00900
Br715      Br  0.74680125  0.47477907  0.29036763    -0.00900
Br716      Br  0.74701356  0.47578189  0.21334339    -0.00900
C717        C  0.62839159  0.65092189  0.37848402    -0.02000
C718        C  0.66923919  0.67291389  0.39126203     0.07700
C719        C  0.67506892  0.66437166  0.42191914    -0.02100
C720        C  0.64167729  0.63284208  0.43887892    -0.02100
C721        C  0.60094942  0.61144008  0.42638142     0.07800
C722        C  0.59440911  0.62061508  0.39608747    -0.02300
Br723      Br  0.53849699  0.59336783  0.37899027    -0.00900
Br724      Br  0.61766030  0.66178323  0.33716939    -0.00900
Br725      Br  0.65273226  0.61811300  0.47900620    -0.00900
Br726      Br  0.72728970  0.69974047  0.44280054    -0.00900
C727        C  0.72811264  0.63531085  0.35348835    -0.02000
C728        C  0.75101275  0.67230022  0.37120133     0.07700
C729        C  0.78729034  0.67875471  0.38710908    -0.02100
C730        C  0.80020922  0.64902205  0.38492979    -0.02100
C731        C  0.77706768  0.61237304  0.36706642     0.07800
C732        C  0.73984686  0.60478031  0.35273524    -0.02300
Br733      Br  0.70524750  0.55249488  0.33102393    -0.00900
Br734      Br  0.68649362  0.62966505  0.32465000    -0.00900
Br735      Br  0.85194965  0.66064645  0.40407774    -0.00900
Br736      Br  0.82232647  0.73003020  0.40983355    -0.00900
C737        C  0.71371704  0.16180053  0.26888058    -0.02000
C738        C  0.71931328  0.19919518  0.28186517     0.07700
C739        C  0.72296876  0.23121557  0.26248106    -0.02100
C740        C  0.72503874  0.22757376  0.23034417    -0.02100
C741        C  0.72361104  0.19196754  0.21758109     0.07800
C742        C  0.71621364  0.15835245  0.23674471    -0.02300
Br743      Br  0.71315169  0.10913853  0.21906691    -0.00900
Br744      Br  0.70661511  0.11693355  0.29521000    -0.00900
Br745      Br  0.73281402  0.27250430  0.20382477    -0.00900
Br746      Br  0.72731588  0.28095828  0.28027984    -0.00900
C747        C  0.51392746  0.76572013  0.25596806    -0.02000
C748        C  0.53955647  0.80117083  0.27432788     0.07700
C749        C  0.56774302  0.83967752  0.26022525    -0.02100
C750        C  0.57159574  0.84220673  0.22800473    -0.02100
C751        C  0.54663207  0.80653362  0.20958111     0.07800
C752        C  0.51738838  0.76842580  0.22362042    -0.02300
Br753      Br  0.48404441  0.71941886  0.19847752    -0.00900
Br754      Br  0.47539206  0.71316617  0.27534668    -0.00900
Br755      Br  0.61479129  0.89343390  0.20958690    -0.00900
Br756      Br  0.60446184  0.88812848  0.28510321    -0.00900
C757        C  0.64511611  0.78213972  0.32789072    -0.02000
C758        C  0.61912393  0.78143872  0.35212282     0.07700
C759        C  0.62527386  0.77034746  0.38203318    -0.02100
C760        C  0.65618900  0.75957456  0.38725001    -0.02100
C761        C  0.67859453  0.75590657  0.36236649     0.07800
C762        C  0.67255483  0.76715374  0.33258516    -0.02300
Br763      Br  0.69999564  0.75984299  0.29715042    -0.00900
Br764      Br  0.64730014  0.80744969  0.28850244    -0.00900
Br765      Br  0.66988681  0.75331275  0.42880073    -0.00900
Br766      Br  0.59118684  0.76865327  0.41621910    -0.00900
C767        C  0.09936794  0.36100222  0.33283909    -0.02000
C768        C  0.07607230  0.38100072  0.33626913     0.07700
C769        C  0.09688222  0.42470316  0.34126024    -0.02100
C770        C  0.14088476  0.44827734  0.34279036    -0.02100
C771        C  0.16418689  0.42833843  0.33901000     0.07800
C772        C  0.14337487  0.38458140  0.33463385    -0.02300
Br773      Br  0.17537714  0.35731711  0.33006730    -0.00900
Br774      Br  0.07065211  0.30126680  0.32591373    -0.00900
Br775      Br  0.16955974  0.50820079  0.34890553    -0.00900
Br776      Br  0.06509476  0.45240298  0.34465122    -0.00900
C777        C  0.89388011  0.25660116  0.33897756    -0.02000
C778        C  0.91921724  0.29934885  0.34682093     0.07700
C779        C  0.90062608  0.32092176  0.35969249    -0.02100
C780        C  0.85685018  0.29985348  0.36424578    -0.02100
C781        C  0.83153662  0.25756012  0.35528399     0.07800
C782        C  0.85039496  0.23564109  0.34374257    -0.02300
Br783      Br  0.81613368  0.17711383  0.33286725    -0.00900
Br784      Br  0.91881167  0.22720690  0.32035147    -0.00900
Br785      Br  0.83098602  0.32956958  0.38036017    -0.00900
Br786      Br  0.93441599  0.38031644  0.36774422    -0.00900
C787        C  0.07846666  0.42245664  0.58512623    -0.02000
C788        C  0.09251046  0.46331159  0.57315073     0.07700
C789        C  0.13393136  0.49608114  0.58003250    -0.02100
C790        C  0.15895690  0.48914299  0.60060528    -0.02100
C791        C  0.14408390  0.44913444  0.61315988     0.07800
C792        C  0.10437412  0.41567060  0.60487001    -0.02300
Br793      Br  0.08428790  0.36072007  0.62237603    -0.00900
Br794      Br  0.02355031  0.37456797  0.57619993    -0.00900
Br795      Br  0.21426961  0.53451386  0.61151926    -0.00900
Br796      Br  0.15869581  0.55010583  0.56008158    -0.00900
C797        C  0.90025841  0.36763279  0.60475745    -0.02000
C798        C  0.87826076  0.37041139  0.57937827     0.07700
C799        C  0.83485437  0.34191903  0.57665457    -0.02100
C800        C  0.81425480  0.30924125  0.59834704    -0.02100
C801        C  0.83731652  0.30445645  0.62214110     0.07800
C802        C  0.88038182  0.33403858  0.62528453    -0.02300
Br803      Br  0.91348250  0.32774372  0.65656099    -0.00900
Br804      Br  0.95767271  0.41136789  0.61237729    -0.00900
Br805      Br  0.75447142  0.27189815  0.59609784    -0.00900
Br806      Br  0.80403528  0.34716677  0.54313312    -0.00900
C807        C  0.12706732  0.68474755  0.43108100    -0.02000
C808        C  0.15686777  0.68399591  0.41104523     0.07700
C809        C  0.16322926  0.64945108  0.41248590    -0.02100
C810        C  0.13736674  0.61461396  0.43110404    -0.02100
C811        C  0.10705914  0.61508312  0.45013240     0.07800
C812        C  0.10306201  0.65076550  0.45099877    -0.02300
Br813      Br  0.06237975  0.65164440  0.47827990    -0.00900
Br814      Br  0.11555350  0.72988852  0.43004802    -0.00900
Br815      Br  0.14281091  0.56564728  0.43029705    -0.00900
Br816      Br  0.20839188  0.64975170  0.39012632    -0.00900
C817        C  0.91306011  0.54535568  0.41453502    -0.02000
C818        C  0.89068304  0.50867730  0.43254709     0.07700
C819        C  0.84661932  0.48447134  0.43017145    -0.02100
C820        C  0.82517934  0.49702429  0.41012995    -0.02100
C821        C  0.84768219  0.53356804  0.39224808     0.07800
C822        C  0.89160772  0.55758586  0.39451166    -0.02300
Br823      Br  0.92250953  0.60801879  0.37041323    -0.00900
Br824      Br  0.97331457  0.58034669  0.41781778    -0.00900
Br825      Br  0.76513241  0.46358169  0.40631334    -0.00900
Br826      Br  0.81593004  0.43274705  0.45274783    -0.00900
C827        C  0.96871513  0.31430660  0.40455677    -0.02000
C828        C  0.00431298  0.33455412  0.38554946     0.07700
C829        C  0.04013385  0.36728172  0.39989391    -0.02100
C830        C  0.03515351  0.39292787  0.42095734    -0.02100
C831        C  0.99500676  0.37949576  0.43277812     0.07800
C832        C  0.96274553  0.33771645  0.42742209    -0.02300
Br833      Br  0.91077354  0.31331537  0.44973800    -0.00900
Br834      Br  0.93546056  0.25419804  0.40427379    -0.00900
Br835      Br  0.08380512  0.44286069  0.43644077    -0.00900
Br836      Br  0.08748733  0.36055623  0.40603906    -0.00900
C837        C  0.00509200  0.60941578  0.60686173    -0.02000
C838        C  0.98581224  0.59673003  0.57774889     0.07700
C839        C  0.96936069  0.61922792  0.56356659    -0.02100
C840        C  0.97164929  0.65384880  0.57854034    -0.02100
C841        C  0.98984699  0.66617632  0.60809128     0.07800
C842        C  0.00744994  0.64424366  0.62195880    -0.02300
Br843      Br  0.03432218  0.66068279  0.66171305    -0.00900
Br844      Br  0.02703918  0.57814161  0.62655421    -0.00900
Br845      Br  0.95517127  0.68782345  0.55624796    -0.00900
Br846      Br  0.94681736  0.60511968  0.52219490    -0.00900
C847        C  0.87406819  0.36108005  0.93519851    -0.02000
C848        C  0.91677315  0.37632004  0.94221170     0.07700
C849        C  0.93668730  0.35588867  0.92874153    -0.02100
C850        C  0.91475007  0.32245508  0.90795657    -0.02100
C851        C  0.87282816  0.30828676  0.90073429     0.07800
C852        C  0.85243134  0.32736672  0.91438031    -0.02300
Br853      Br  0.79463754  0.30704634  0.90419745    -0.00900
Br854      Br  0.84373371  0.38424841  0.95490561    -0.00900
Br855      Br  0.94286513  0.29715219  0.88774875    -0.00900
Br856      Br  0.99460225  0.37318941  0.93686946    -0.00900
C857        C  0.16474104  0.51521461  0.94255193    -0.02000
C858        C  0.12295739  0.50478190  0.93838393     0.07700
C859        C  0.10168745  0.48473049  0.91109948    -0.02100
C860        C  0.12050119  0.47169789  0.88925855    -0.02100
C861        C  0.16255424  0.48210127  0.89302946     0.07800
C862        C  0.18482104  0.50452185  0.91964828    -0.02300
Br863      Br  0.24289461  0.52143694  0.92455651    -0.00900
Br864      Br  0.19388116  0.54349344  0.97972562    -0.00900
Br865      Br  0.08633845  0.43601349  0.85590742    -0.00900
Br866      Br  0.04663511  0.47621626  0.90324970    -0.00900
C867        C  0.87853832  0.53783533  0.05987542    -0.02000
C868        C  0.89018705  0.50890208  0.06910365     0.07700
C869        C  0.87390527  0.48682743  0.09682073    -0.02100
C870        C  0.85015790  0.49680672  0.11670939    -0.02100
C871        C  0.84391296  0.53062693  0.10986715     0.07800
C872        C  0.85573659  0.54888741  0.07998017    -0.02300
Br873      Br  0.84211652  0.58946476  0.06504193    -0.00900
Br874      Br  0.89541800  0.56408951  0.02002009    -0.00900
Br875      Br  0.82378153  0.46114429  0.15196850    -0.00900
Br876      Br  0.88303481  0.44149896  0.10703384    -0.00900
C877        C  0.09831896  0.64453886  0.10320823    -0.02000
C878        C  0.11572077  0.62509863  0.08570646     0.07700
C879        C  0.15777096  0.63653654  0.09043674    -0.02100
C880        C  0.18205499  0.66684601  0.11295754    -0.02100
C881        C  0.16439821  0.68581375  0.13065609     0.07800
C882        C  0.12260870  0.67480874  0.12557470    -0.02300
Br883      Br  0.09846506  0.70113244  0.14930634    -0.00900
Br884      Br  0.04128065  0.63048493  0.09596723    -0.00900
Br885      Br  0.23934125  0.68210977  0.12001757    -0.00900
Br886      Br  0.18139784  0.60930801  0.06713527    -0.00900
C887        C  0.98651778  0.35141587  0.07450148    -0.02000
C888        C  0.00748744  0.39286369  0.08605729     0.07700
C889        C  0.02603641  0.40120818  0.11546949    -0.02100
C890        C  0.02436825  0.36849469  0.13298484    -0.02100
C891        C  0.00374083  0.32694110  0.12129689     0.07800
C892        C  0.98511027  0.31886892  0.09182623    -0.02300
Br893      Br  0.96114222  0.26408829  0.07329946    -0.00900
Br894      Br  0.95831673  0.33842558  0.03504347    -0.00900
Br895      Br  0.05046668  0.38160603  0.17297380    -0.00900
Br896      Br  0.05563771  0.45792987  0.13127124    -0.00900
C897        C  0.02458650  0.61412725  0.90174737    -0.02000
C898        C  0.01271354  0.61271230  0.93269717     0.07700
C899        C  0.00006354  0.64030603  0.94312294    -0.02100
C900        C  0.99706198  0.66771247  0.92248227    -0.02100
C901        C  0.00785126  0.66880262  0.89108835     0.07800
C902        C  0.02283590  0.64245427  0.88106049    -0.02300
Br903      Br  0.04242005  0.64514904  0.83965084    -0.00900
Br904      Br  0.04408003  0.57759841  0.88803033    -0.00900
Br905      Br  0.98355171  0.70761125  0.93866072    -0.00900
Br906      Br  0.99044976  0.64298602  0.98647924    -0.00900
C907        C  0.29749435  0.85231516  0.57373605    -0.02000
C908        C  0.30114731  0.82784437  0.59709607     0.07700
C909        C  0.33758202  0.82459564  0.59753685    -0.02100
C910        C  0.37179045  0.84968386  0.57796391    -0.02100
C911        C  0.36820384  0.87444674  0.55493822     0.07800
C912        C  0.32945221  0.87280412  0.55164895    -0.02300
Br913      Br  0.31874739  0.89740245  0.51615121    -0.00900
Br914      Br  0.25129622  0.86232459  0.57277818    -0.00900
Br915      Br  0.42425336  0.85200704  0.58495598    -0.00900
Br916      Br  0.34089748  0.78452466  0.62389371    -0.00900
C917        C  0.43603630  0.06435994  0.59138065    -0.02000
C918        C  0.47325352  0.08790598  0.57386521     0.07700
C919        C  0.49818624  0.13170348  0.57886263    -0.02100
C920        C  0.48458972  0.15180717  0.59951183    -0.02100
C921        C  0.44621567  0.12847774  0.61513932     0.07800
C922        C  0.42239509  0.08471767  0.61145232    -0.02300
Br923      Br  0.37031566  0.05259464  0.63367286    -0.00900
Br924      Br  0.40424961  0.00360209  0.58985778    -0.00900
Br925      Br  0.51872159  0.21129633  0.60706058    -0.00900
Br926      Br  0.55035198  0.16479315  0.55719687    -0.00900
C927        C  0.48542306  0.85957106  0.40566693    -0.02000
C928        C  0.51731846  0.89676919  0.41924245     0.07700
C929        C  0.55952927  0.91129169  0.41202327    -0.02100
C930        C  0.56995660  0.88828403  0.39178222    -0.02100
C931        C  0.53812517  0.85033300  0.37872990     0.07800
C932        C  0.49573139  0.83625914  0.38557217    -0.02300
Br933      Br  0.45156164  0.78446641  0.36810446    -0.00900
Br934      Br  0.42763808  0.84144555  0.41401677    -0.00900
Br935      Br  0.62774907  0.91052185  0.38039343    -0.00900
Br936      Br  0.60307844  0.96350667  0.42944492    -0.00900
C937        C  0.64594835  0.16904358  0.39188425    -0.02000
C938        C  0.68506677  0.17118449  0.39234189     0.07700
C939        C  0.69229579  0.14827712  0.41501305    -0.02100
C940        C  0.66018604  0.12225014  0.43582864    -0.02100
C941        C  0.62044278  0.11822272  0.43389116     0.07800
C942        C  0.61352591  0.14181888  0.41191549    -0.02300
Br943      Br  0.55898820  0.13600814  0.40875895    -0.00900
Br944      Br  0.63675964  0.20450074  0.36458050    -0.00900
Br945      Br  0.66929258  0.08878495  0.46516913    -0.00900
Br946      Br  0.74465344  0.14919113  0.41637495    -0.00900
C947        C  0.37307696  0.98109910  0.39433809    -0.02000
C948        C  0.38574595  0.00108237  0.42333384     0.07700
C949        C  0.36487815  0.02050194  0.43607312    -0.02100
C950        C  0.33016808  0.01757131  0.42099128    -0.02100
C951        C  0.31735436  0.99779747  0.39195895     0.07800
C952        C  0.33924779  0.97971560  0.37861839    -0.02300
Br953      Br  0.32302067  0.95181737  0.33922172    -0.00900
Br954      Br  0.39993559  0.95294033  0.37670044    -0.00900
Br955      Br  0.29661600  0.03513267  0.44282379    -0.00900
Br956      Br  0.38375165  0.05214208  0.47421917    -0.00900
C957        C  0.62856118  0.97663045  0.55729135    -0.02000
C958        C  0.60214753  0.99019994  0.56879551     0.07700
C959        C  0.60795273  0.00633781  0.59895958    -0.02100
C960        C  0.63972374  0.00827700  0.61781902    -0.02100
C961        C  0.66494847  0.99260191  0.60685421     0.07800
C962        C  0.66003026  0.97823956  0.57607802    -0.02300
Br963      Br  0.69987065  0.96584100  0.55812292    -0.00900
Br964      Br  0.62334928  0.95828548  0.51501684    -0.00900
Br965      Br  0.64919336  0.03458456  0.65760082    -0.00900
Br966      Br  0.57136470  0.02475302  0.61464213    -0.00900
C967        C  0.65853113  0.50827605  0.93848098    -0.02000
C968        C  0.62551817  0.51461787  0.93072153     0.07700
C969        C  0.62496683  0.53120084  0.90185471    -0.02100
C970        C  0.65876622  0.54444883  0.88158523    -0.02100
C971        C  0.69137578  0.53665990  0.88848898     0.07800
C972        C  0.69090256  0.51817332  0.91708256    -0.02300
Br973      Br  0.73361144  0.50530433  0.92705808    -0.00900
Br974      Br  0.65960726  0.48699114  0.97864905    -0.00900
Br975      Br  0.66157880  0.57732701  0.84623396    -0.00900
Br976      Br  0.57662654  0.53421228  0.88960920    -0.00900
C977        C  0.48723632  0.63186661  0.92385741    -0.02000
C978        C  0.51987128  0.62315189  0.92865160     0.07700
C979        C  0.55780344  0.64656002  0.91164708    -0.02100
C980        C  0.56259405  0.67743055  0.89060416    -0.02100
C981        C  0.53014322  0.68569171  0.88615146     0.07800
C982        C  0.49254726  0.66294817  0.90266385    -0.02300
Br983      Br  0.44888809  0.67585410  0.89685567    -0.00900
Br984      Br  0.43556844  0.60355626  0.94699642    -0.00900
Br985      Br  0.61358036  0.70793057  0.86679856    -0.00900
Br986      Br  0.60408618  0.63695538  0.91538580    -0.00900
C987        C  0.51357258  0.35162086  0.11287654    -0.02000
C988        C  0.47376467  0.31458458  0.11249406     0.07700
C989        C  0.44404502  0.31002826  0.09036928    -0.02100
C990        C  0.45384640  0.34241930  0.06920882    -0.02100
C991        C  0.49328434  0.37973162  0.06990191     0.07800
C992        C  0.52325682  0.38408635  0.09170754    -0.02300
Br993      Br  0.57730612  0.43500098  0.09290789    -0.00900
Br994      Br  0.55466300  0.35827379  0.14288846    -0.00900
Br995      Br  0.41131467  0.33749888  0.04164204    -0.00900
Br996      Br  0.38813080  0.26162973  0.09118210    -0.00900
C997        C  0.36309618  0.45058652  0.08312262    -0.02000
C998        C  0.38484549  0.48829727  0.06631794     0.07700
C999        C  0.36983131  0.51623926  0.06586963    -0.02100
C1000       C  0.33363488  0.50685426  0.08260172    -0.02100
C1001       C  0.31242093  0.46962983  0.09989616     0.07800
C1002       C  0.32703180  0.44134818  0.09995874    -0.02300
Br1003     Br  0.29895762  0.39094841  0.12435783    -0.00900
Br1004     Br  0.38204571  0.41091474  0.08258427    -0.00900
Br1005     Br  0.31282043  0.54491889  0.08181064    -0.00900
Br1006     Br  0.40018147  0.56847731  0.04378959    -0.00900
C1007       C  0.36931976  0.35445400  0.93088383    -0.02000
C1008       C  0.39829557  0.39634062  0.92331728     0.07700
C1009       C  0.39599062  0.41190854  0.89443186    -0.02100
C1010       C  0.36554168  0.38537722  0.87290555    -0.02100
C1011       C  0.33594671  0.34315655  0.88050257     0.07800
C1012       C  0.33765904  0.32832346  0.90999609    -0.02300
Br1013     Br  0.29543963  0.27299078  0.92294929    -0.00900
Br1014     Br  0.37199223  0.33299416  0.97028850    -0.00900
Br1015     Br  0.36831786  0.40711655  0.83243675    -0.00900
Br1016     Br  0.43624379  0.46948870  0.88385433    -0.00900
C1017       C  0.66618528  0.64180645  0.06313849    -0.02000
C1018       C  0.62408200  0.62100105  0.07333154     0.07700
C1019       C  0.61438128  0.63452562  0.10096660    -0.02100
C1020       C  0.64646596  0.66698235  0.11880460    -0.02100
C1021       C  0.68862586  0.68730704  0.10872783     0.07800
C1022       C  0.69768233  0.67559011  0.08011677    -0.02300
Br1023     Br  0.75270963  0.70852504  0.06236007    -0.00900
Br1024     Br  0.68222198  0.62340634  0.02657490    -0.00900
Br1025     Br  0.63166792  0.68188426  0.15737931    -0.00900
Br1026     Br  0.55681569  0.61039512  0.11396222    -0.00900
C1027       C  0.50802334  0.13433589  0.90859347    -0.02000
C1028       C  0.48327277  0.10816359  0.93271970     0.07700
C1029       C  0.44407526  0.10408821  0.93897950    -0.02100
C1030       C  0.42829376  0.12330961  0.91962722    -0.02100
C1031       C  0.45218157  0.14777200  0.89431024     0.07800
C1032       C  0.49297983  0.15472232  0.88990995    -0.02300
Br1033     Br  0.52922077  0.19324636  0.85882472    -0.00900
Br1034     Br  0.56278032  0.14219570  0.90120754    -0.00900
Br1035     Br  0.37246143  0.11273352  0.92659153    -0.00900
Br1036     Br  0.41042374  0.06938964  0.97273443    -0.00900
C1037       C  0.35526201  0.90461143  0.91357119    -0.02000
C1038       C  0.38516706  0.89311416  0.91987085     0.07700
C1039       C  0.38251829  0.85816647  0.90492073    -0.02100
C1040       C  0.35016673  0.83485641  0.88350734    -0.02100
C1041       C  0.32057107  0.84682817  0.87661392     0.07800
C1042       C  0.32318285  0.88174579  0.89194405    -0.02300
Br1043     Br  0.28474438  0.90037057  0.88199431    -0.00900
Br1044     Br  0.35913146  0.95266134  0.93420488    -0.00900
Br1045     Br  0.34585556  0.78570399  0.86451312    -0.00900
Br1046     Br  0.42381225  0.84288578  0.91355529    -0.00900
C1047       C  0.67481483  0.17124721  0.09029912    -0.02000
C1048       C  0.69168627  0.15229433  0.10853721     0.07700
C1049       C  0.67907923  0.11004653  0.10361336    -0.02100
C1050       C  0.65043988  0.08682287  0.08003300    -0.02100
C1051       C  0.63222509  0.10524511  0.06188532     0.07800
C1052       C  0.64510578  0.14794013  0.06713931    -0.02300
Br1053     Br  0.62421073  0.17586996  0.04185567    -0.00900
Br1054     Br  0.69234107  0.22926206  0.09757824    -0.00900
Br1055     Br  0.63649922  0.02937356  0.07418776    -0.00900
Br1056     Br  0.69961601  0.08326081  0.13056723    -0.00900
C1057       C  0.53065847  0.83505277  0.07583389    -0.02000
C1058       C  0.54871061  0.85544561  0.10407443     0.07700
C1059       C  0.55078133  0.89366660  0.11099248    -0.02100
C1060       C  0.53563204  0.91135828  0.08992579    -0.02100
C1061       C  0.52122373  0.89298849  0.06074859     0.07800
C1062       C  0.51796171  0.85435707  0.05388383    -0.02300
Br1063     Br  0.49644231  0.82835559  0.01442973    -0.00900
Br1064     Br  0.52100639  0.77970116  0.06788173    -0.00900
Br1065     Br  0.53284579  0.96019917  0.10145151    -0.00900
Br1066     Br  0.57664039  0.92386679  0.14835892    -0.00900
C1067       C  0.66272935  0.02596820  0.92663489    -0.02000
C1068       C  0.62164385  0.00534330  0.91476494     0.07700
C1069       C  0.61306370  0.98288122  0.88680544    -0.02100
C1070       C  0.64532139  0.98074888  0.87118823    -0.02100
C1071       C  0.68561117  0.99816880  0.88478871     0.07800
C1072       C  0.69325611  0.01954203  0.91321643    -0.02300
Br1073     Br  0.74257653  0.03415465  0.93704065    -0.00900
Br1074     Br  0.67817377  0.06449836  0.96103057    -0.00900
Br1075     Br  0.63332773  0.95455865  0.83110783    -0.00900
Br1076     Br  0.55675142  0.95290620  0.87060931    -0.00900
C1077       C  0.40823538  0.01575415  0.12957288    -0.02000
C1078       C  0.36438064  0.99804704  0.12737634     0.07700
C1079       C  0.34380964  0.97767710  0.09964496    -0.02100
C1080       C  0.36672398  0.97528909  0.07466065    -0.02100
C1081       C  0.41037232  0.99370025  0.07698045     0.07800
C1082       C  0.43101101  0.01365767  0.10452744    -0.02300
Br1083     Br  0.49078883  0.03674524  0.10853824    -0.00900
Br1084     Br  0.43790192  0.04056931  0.16725986    -0.00900
Br1085     Br  0.33872599  0.94902061  0.03651639    -0.00900
Br1086     Br  0.28487547  0.95609105  0.09424883    -0.00900
loop_ 
_geom_bond_atom_site_label_1 
_geom_bond_atom_site_label_2 
_geom_bond_distance 
_geom_bond_site_symmetry_2 
_ccdc_geom_bond_type 
O1           C17   1.272   1_565  A
O1           Zn7   1.986   1_556  S
C2           O18   1.270       .  A
C2           O15   1.277       .  A
C2         C1051   1.500       .  S
O3           C16   1.277       .  A
O3          Cd10   2.102       .  S
O4           C22   1.272   1_545  A
O4          Cd13   2.044       .  S
O5           C19   1.277       .  A
O5           Cd9   2.080       .  S
O6           C17   1.277       .  A
O6           Cd9   2.097       .  S
Zn7          O18   2.006   1_565  S
Zn7          O20   1.999       .  S
Zn7          O12   1.922   1_554  S
O8           C19   1.277       .  A
O8          Cd13   2.088   1_556  S
Cd9          O11   2.071   1_545  S
Cd9          O12   2.003   1_545  S
Cd10         O14   2.094   1_554  S
Cd10         O23   2.081       .  S
Cd10         O12   2.021   1_554  S
O11          C21   1.275       .  A
O12         Cd13   2.006   1_566  S
Cd13         O15   2.095       .  S
O14          C21   1.279       .  A
C16          O20   1.271       .  A
C16        C1061   1.479       .  S
C17        C1068   1.484       .  S
C19        C1028   1.485       .  S
C21        C1038   1.477       .  S
C22          O23   1.276       .  A
C22        C1081   1.473       .  S
O24          C40   1.271       .  A
O24         Zn30   2.001   1_554  S
C25          O41   1.273       .  A
C25          O38   1.277       .  A
C25         C968   1.470       .  S
O26          C39   1.273       .  A
O26         Cd33   2.085       .  S
O27          C45   1.277       .  A
O27         Cd36   2.093       .  S
O28          C42   1.275       .  A
O28         Cd32   2.077       .  S
O29          C40   1.277       .  A
O29         Cd32   2.095       .  S
Zn30         O41   1.994       .  S
Zn30         O43   2.006       .  S
Zn30         O35   1.931   1_556  S
O31          C42   1.278       .  A
O31         Cd36   2.095   1_554  S
Cd32         O34   2.073       .  S
Cd32         O35   2.002       .  S
Cd33         O37   2.063   1_556  S
Cd33         O46   2.050       .  S
Cd33         O35   2.003   1_556  S
O34          C44   1.277       .  A
O35         Cd36   2.018   1_554  S
Cd36         O38   2.089       .  S
O37          C44   1.275       .  A
C39          O43   1.269       .  A
C39         C978   1.502       .  S
C40        C1018   1.493       .  S
C42         C991   1.485       .  S
C44         C998   1.474       .  S
C45          O46   1.271       .  A
C45        C1008   1.476       .  S
O47          C63   1.269       .  A
O47         Zn53   1.980       .  S
C48          O64   1.267       .  A
C48          O61   1.278       .  A
C48         C911   1.498       .  S
O49          C62   1.278       .  A
O49         Cd56   2.108       .  S
O50          C68   1.278       .  A
O50         Cd59   2.084       .  S
O51          C65   1.275       .  A
O51         Cd55   2.072   1_565  S
O52          C63   1.274   1_545  A
O52         Cd55   2.079       .  S
Zn53         O64   1.979       .  S
Zn53         O66   1.977   1_565  S
Zn53         O58   1.916       .  S
O54          C65   1.278       .  A
O54         Cd59   2.092       .  S
Cd55         O57   2.059       .  S
Cd55         O58   2.002   1_545  S
Cd56         O60   2.108       .  S
Cd56         O69   2.063       .  S
Cd56         O58   2.015   1_545  S
O57          C67   1.273       .  A
O58         Cd59   2.016       .  S
Cd59         O61   2.114       .  S
O60          C67   1.280       .  A
C62          O66   1.268       .  A
C62         C918   1.492       .  S
C63         C948   1.482   1_565  S
C65         C928   1.478       .  S
C67         C941   1.484       .  S
C68          O69   1.275   1_565  A
C68         C958   1.474       .  S
O70          C86   1.270       .  A
O70         Zn76   1.992       .  S
C71          O87   1.267       .  A
C71          O84   1.278       .  A
C71         C848   1.497       .  S
O72          C85   1.276       .  A
O72         Cd79   2.097       .  S
O73          C91   1.277   1_655  A
O73         Cd82   2.083       .  S
O74          C88   1.274       .  A
O74         Cd78   2.063   1_655  S
O75          C86   1.275       .  A
O75         Cd78   2.085       .  S
Zn76         O87   1.981   1_454  S
Zn76         O89   1.990   1_554  S
Zn76         O81   1.919       .  S
O77          C88   1.280       .  A
O77         Cd82   2.109   1_554  S
Cd78         O80   2.060       .  S
Cd78         O81   1.991       .  S
Cd79         O83   2.095   1_556  S
Cd79         O92   2.089       .  S
Cd79         O81   2.018   1_556  S
O80          C90   1.275       .  A
O81         Cd82   2.013   1_454  S
Cd82         O84   2.100       .  S
O83          C90   1.279       .  A
C85          O89   1.271       .  A
C85         C858   1.476       .  S
C86         C888   1.481       .  S
C88         C868   1.492       .  S
C90         C878   1.477       .  S
C91          O92   1.277       .  A
C91         C898   1.479       .  S
O93         C109   1.271       .  A
O93         Zn99   1.983       .  S
C94         O110   1.269       .  A
C94         O107   1.273       .  A
C94         C831   1.461       .  S
O95         C108   1.275       .  A
O95        Cd102   2.083       .  S
O96         C114   1.273       .  A
O96        Cd105   2.062   1_455  S
O97         C111   1.279       .  A
O97        Cd101   2.100       .  S
O98         C109   1.277       .  A
O98        Cd101   2.101       .  S
Zn99        O110   1.988       .  S
Zn99        O112   1.996   1_655  S
Zn99        O104   1.920       .  S
O100        C111   1.274       .  A
O100       Cd105   2.058       .  S
Cd101       O103   2.066       .  S
Cd101       O104   2.010       .  S
Cd102       O106   2.057       .  S
Cd102       O115   2.084       .  S
Cd102       O104   2.008   1_455  S
O103        C113   1.275       .  A
O104       Cd105   1.981       .  S
Cd105       O107   2.056       .  S
O106        C113   1.273   1_455  A
C108        O112   1.268       .  A
C108        C788   1.499       .  S
C109        C798   1.478       .  S
C111        C818   1.486       .  S
C113        C838   1.474       .  S
C114        O115   1.275       .  A
C114        C811   1.475       .  S
N116        C120   1.372       .  A
N116        C117   1.369   1_655  A
N116        C828   1.465   1_655  S
C117        C768   1.477       .  S
C117        C118   1.378       .  A
C118        C119   1.365   1_455  A
C118        H121   1.082       .  S
C119        C120   1.380       .  A
C119        H122   1.082       .  S
C120        C778   1.484       .  S
C123        C931   1.485       .  S
C123        N124   1.365       .  A
C123        N128   1.360       .  A
N124        C125   1.363       .  A
C125        C758   1.502       .  S
C125        N126   1.357       .  A
N126        C127   1.355       .  A
C127        C748   1.476       .  S
C127        N128   1.357       .  A
C129        C938   1.495       .  S
C129        N130   1.367       .  A
C129        N134   1.365       .  A
N130        C131   1.363       .  A
C131        C781   1.478       .  S
C131        N132   1.354       .  A
N132        C133   1.352       .  A
C133        C738   1.476       .  S
C133        N134   1.358       .  A
N135        C139   1.372       .  A
N135        C136   1.368       .  A
N135        C718   1.451       .  S
C136        C761   1.499       .  S
C136        C137   1.383       .  A
C137        C138   1.371       .  A
C137        H140   1.082       .  S
C138        C139   1.382       .  A
C138        H141   1.082       .  S
C139        C728   1.505       .  S
C142        C821   1.480       .  S
C142        N143   1.362       .  A
C142        N147   1.365       .  A
N143        C144   1.357       .  A
C144        C711   1.475       .  S
C144        N145   1.354       .  A
N145        C146   1.357       .  A
C146        C731   1.489       .  S
C146        N147   1.364       .  A
C148        C808   1.495       .  S
C148        N149   1.361       .  A
C148        N153   1.366       .  A
N149        C150   1.355       .  A
C150        C691   1.474       .  S
C150        N151   1.353       .  A
N151        C152   1.355       .  A
C152        C698   1.496       .  S
C152        N153   1.364       .  A
N154        C158   1.365       .  A
N154        C155   1.368   1_565  A
N154        C951   1.448       .  S
C155        C678   1.500       .  S
C155        C156   1.382       .  A
C156        C157   1.373   1_545  A
C156        H159   1.081       .  S
C157        C158   1.384       .  A
C157        H160   1.082       .  S
C158        C701   1.497       .  S
C161        C671   1.483       .  S
C161        N162   1.363       .  A
C161        N166   1.367       .  A
N162        C163   1.358       .  A
C163        C771   1.472       .  S
C163        N164   1.351       .  A
N164        C165   1.354       .  A
C165        C658   1.492       .  S
C165        N166   1.363       .  A
C167        C651   1.473       .  S
C167        N168   1.362       .  A
C167        N172   1.359       .  A
N168        C169   1.362       .  A
C169        C681   1.490       .  S
C169        N170   1.358       .  A
N170        C171   1.356       .  A
C171        C638   1.474       .  S
C171        N172   1.356       .  A
C173       C1058   1.489       .  S
C173        N174   1.363       .  A
C173        N178   1.369       .  A
N174        C175   1.357       .  A
C175        C751   1.477       .  S
C175        N176   1.351       .  A
N176        C177   1.356       .  A
C177        C628   1.503       .  S
C177        N178   1.366       .  A
C179       C1048   1.478       .  S
C179        N180   1.363       .  A
C179        N184   1.361       .  A
N180        C181   1.361       .  A
C181        C618   1.491       .  S
C181        N182   1.357       .  A
N182        C183   1.355       .  A
C183        C741   1.474       .  S
C183        N184   1.358       .  A
N185        C189   1.370       .  A
N185        C186   1.368       .  A
N185       C1021   1.453       .  S
C186        C631   1.493       .  S
C186        C187   1.383       .  A
C187        C188   1.368       .  A
C187        H190   1.082       .  S
C188        C189   1.382       .  A
C188        H191   1.081       .  S
C189        C608   1.501       .  S
C192        C871   1.513       .  S
C192        N193   1.364       .  A
C192        N197   1.367       .  A
N193        C194   1.360       .  A
C194        C611   1.477       .  S
C194        N195   1.352       .  A
N195        C196   1.351       .  A
C196        C708   1.475       .  S
C196        N197   1.361       .  A
C198        C881   1.476       .  S
C198        N199   1.362       .  A
C198        N203   1.361       .  A
N199        C200   1.360       .  A
C200        C688   1.478       .  S
C200        N201   1.355       .  A
N201        C202   1.355       .  A
C202        C598   1.477       .  S
C202        N203   1.359       .  A
N204        C208   1.369   1_545  A
N204        C205   1.370       .  A
N204       C1078   1.450   1_545  S
C205        C588   1.498       .  S
C205        C206   1.382       .  A
C206        C207   1.369   1_545  A
C206        H209   1.083       .  S
C207        C208   1.382       .  A
C207        H210   1.083       .  S
C208        C601   1.497       .  S
C211       C1001   1.473       .  S
C211        N212   1.365       .  A
C211        N216   1.358       .  A
N212        C213   1.363       .  A
C213        C578   1.492       .  S
C213        N214   1.355       .  A
N214        C215   1.354       .  A
C215        C661   1.481       .  S
C215        N216   1.353       .  A
C217        C988   1.484       .  S
C217        N218   1.362       .  A
C217        N222   1.371       .  A
N218        C219   1.354       .  A
C219        C641   1.470       .  S
C219        N220   1.349       .  A
N220        C221   1.354       .  A
C221        C591   1.499       .  S
C221        N222   1.367       .  A
N223        C227   1.367   1_455  A
N223        C224   1.366       .  A
N223        C891   1.450       .  S
C224        C581   1.496       .  S
C224        C225   1.383       .  A
C225        C226   1.373   1_455  A
C225        H228   1.083       .  S
C226        C227   1.383       .  A
C226        H229   1.076       .  S
C227        C621   1.499       .  S
O230        C246   1.276       .  A
O230       Zn236   2.023       .  S
C231        O247   1.275       .  A
C231        O244   1.280       .  A
C231        C548   1.487       .  S
O232        C245   1.277       .  A
O232       Cd239   2.091       .  S
O233        C251   1.281       .  A
O233       Cd242   2.105       .  S
O234        C248   1.273       .  A
O234       Cd238   2.062       .  S
O235        C246   1.273       .  A
O235       Cd238   2.063       .  S
Zn236       O247   2.019       .  S
Zn236       O249   2.031       .  S
Zn236       O241   1.939       .  S
O237        C248   1.282       .  A
O237       Cd242   2.122       .  S
Cd238       O240   2.059       .  S
Cd238       O241   1.989       .  S
Cd239       O243   2.093       .  S
Cd239       O252   2.058       .  S
Cd239       O241   2.013       .  S
O240        C250   1.274       .  A
O241       Cd242   2.015       .  S
Cd242       O244   2.102       .  S
O243        C250   1.276       .  A
C245        O249   1.276       .  A
C245        C558   1.493       .  S
C246        C721   1.483       .  S
C248        C668   1.497       .  S
C250        C648   1.479       .  S
C251        O252   1.273       .  A
C251        C571   1.477       .  S
C253        C551   1.517       .  S
C253        N254   1.365       .  A
C253        N258   1.363       .  A
N254        C255   1.361       .  A
C255        C538   1.487       .  S
C255        N256   1.353       .  A
N256        C257   1.350       .  A
C257        C528   1.474       .  S
C257        N258   1.357       .  A
C259        C561   1.486       .  S
C259        N260   1.367       .  A
C259        N264   1.363       .  A
N260        C261   1.364       .  A
C261        C518   1.489       .  S
C261        N262   1.353       .  A
N262        C263   1.351       .  A
C263        C511   1.474       .  S
C263        N264   1.358       .  A
N265        C269   1.363   1_565  A
N265        C266   1.365       .  A
N265        C961   1.448       .  S
C266        C541   1.495       .  S
C266        C267   1.380       .  A
C267        C268   1.375   1_565  A
C267        H270   1.083       .  S
C268        C269   1.386       .  A
C268        H271   1.081       .  S
C269        C498   1.494       .  S
C272        C801   1.480       .  S
C272        N273   1.366       .  A
C272        N277   1.358       .  A
N273        C274   1.366       .  A
C274        C501   1.518       .  S
C274        N275   1.355       .  A
N275        C276   1.353       .  A
C276        C491   1.472       .  S
C276        N277   1.352       .  A
C278        C791   1.472       .  S
C278        N279   1.359       .  A
C278        N283   1.355       .  A
N279        C280   1.360       .  A
C280        C481   1.503       .  S
C280        N281   1.359       .  A
N281        C282   1.359       .  A
C282        C468   1.468       .  S
C282        N283   1.353       .  A
N284        C288   1.372       .  A
N284        C285   1.367       .  A
N284        C568   1.451       .  S
C285        C478   1.496       .  S
C285        C286   1.382       .  A
C286        C287   1.371       .  A
C286        H289   1.082       .  S
C287        C288   1.383       .  A
C287        H290   1.082       .  S
C288        C461   1.504       .  S
C291        C921   1.476       .  S
C291        N292   1.364       .  A
C291        N296   1.359       .  A
N292        C293   1.363       .  A
C293        C458   1.489       .  S
C293        N294   1.358       .  A
N294        C295   1.355       .  A
C295        C448   1.472       .  S
C295        N296   1.355       .  A
C297        C908   1.502       .  S
C297        N298   1.361       .  A
C297        N302   1.365       .  A
N298        C299   1.356       .  A
C299        C431   1.482       .  S
C299        N300   1.356       .  A
N300        C301   1.357       .  A
C301        C438   1.500       .  S
C301        N302   1.363       .  A
N303        C307   1.368   1_655  A
N303        C304   1.370       .  A
N303        C841   1.446       .  S
C304        C521   1.507       .  S
C304        C305   1.382       .  A
C305        C306   1.373   1_655  A
C305        H308   1.082       .  S
C306        C307   1.384       .  A
C306        H309   1.081       .  S
C307        C441   1.503       .  S
N310        C314   1.365       .  A
N310        C311   1.369   1_455  A
N310        C901   1.453       .  S
C311        C421   1.494       .  S
C311        C312   1.381       .  A
C312        C313   1.370   1_655  A
C312        H315   1.083       .  S
C313        C314   1.383       .  A
C313        H316   1.082       .  S
C314        C411   1.490       .  S
C317       C1031   1.493       .  S
C317        N318   1.369       .  A
C317        N322   1.364       .  A
N318        C319   1.365       .  A
C319        C401   1.476       .  S
C319        N320   1.352       .  A
N320        C321   1.349       .  A
C321        C451   1.471       .  S
C321        N322   1.357       .  A
C323       C1041   1.487       .  S
C323        N324   1.364       .  A
C323        N328   1.364       .  A
N324        C325   1.361       .  A
C325        C408   1.502       .  S
C325        N326   1.352       .  A
N326        C327   1.353       .  A
C327        C428   1.484       .  S
C327        N328   1.359       .  A
C329        C981   1.476       .  S
C329        N330   1.360       .  A
C329        N334   1.360       .  A
N330        C331   1.359       .  A
C331        C531   1.477       .  S
C331        N332   1.358       .  A
N332        C333   1.358       .  A
C333        C388   1.490       .  S
C333        N334   1.358       .  A
C335        C971   1.486       .  S
C335        N336   1.363       .  A
C335        N340   1.360       .  A
N336        C337   1.361       .  A
C337        C418   1.484       .  S
C337        N338   1.355       .  A
N338        C339   1.353       .  A
C339        C508   1.475       .  S
C339        N340   1.354       .  A
N341        C345   1.369   1_565  A
N341        C342   1.367       .  A
N341       C1071   1.453       .  S
C342        C391   1.494       .  S
C342        C343   1.383       .  A
C343        C344   1.371   1_565  A
C343        H346   1.083       .  S
C344        C345   1.382       .  A
C344        H347   1.081       .  S
C345        C378   1.498       .  S
C348        C851   1.473       .  S
C348        N349   1.361       .  A
C348        N353   1.365       .  A
N349        C350   1.356       .  A
C350        C488   1.469       .  S
C350        N351   1.350       .  A
N351        C352   1.352       .  A
C352        C381   1.479       .  S
C352        N353   1.361       .  A
C354        C861   1.488       .  S
C354        N355   1.372       .  A
C354        N359   1.364       .  A
N355        C356   1.366       .  A
C356        C368   1.494       .  S
C356        N357   1.349       .  A
N357        C358   1.343       .  A
C358        C471   1.465       .  S
C358        N359   1.353       .  A
N360        C364   1.367       .  A
N360        C361   1.365       .  A
N360       C1011   1.449       .  S
C361        C371   1.489       .  S
C361        C362   1.381       .  A
C362        C363   1.372       .  A
C362        H365   1.083       .  S
C363        C364   1.384       .  A
C363        H366   1.082       .  S
C364        C398   1.498       .  S
C367        C368   1.417       .  A
C367        C372   1.398       .  A
C367       Br374   1.937       .  S
C368        C369   1.415       .  A
C369        C370   1.419       .  A
C369       Br376   1.929       .  S
C370        C371   1.415       .  A
C370       Br375   1.923       .  S
C371        C372   1.408       .  A
C372       Br373   1.939       .  S
C377        C378   1.410       .  A
C377        C382   1.402       .  A
C377       Br384   1.921       .  S
C378        C379   1.423       .  A
C379        C380   1.413       .  A
C379       Br386   1.936       .  S
C380        C381   1.409       .  A
C380       Br385   1.929       .  S
C381        C382   1.408       .  A
C382       Br383   1.935       .  S
C387        C388   1.415       .  A
C387        C392   1.413       .  A
C387       Br394   1.931       .  S
C388        C389   1.415       .  A
C389        C390   1.406       .  A
C389       Br396   1.936       .  S
C390        C391   1.418       .  A
C390       Br395   1.939       .  S
C391        C392   1.412       .  A
C392       Br393   1.926       .  S
C397        C398   1.414       .  A
C397        C402   1.409       .  A
C397       Br404   1.920       .  S
C398        C399   1.421       .  A
C399        C400   1.410       .  A
C399       Br406   1.936       .  S
C400        C401   1.406       .  A
C400       Br405   1.929       .  S
C401        C402   1.406       .  A
C402       Br403   1.932       .  S
C407        C408   1.425       .  A
C407        C412   1.406       .  A
C407       Br414   1.940       .  S
C408        C409   1.420       .  A
C409        C410   1.413       .  A
C409       Br416   1.933       .  S
C410        C411   1.409       .  A
C410       Br415   1.924       .  S
C411        C412   1.412       .  A
C412       Br413   1.942       .  S
C417        C418   1.412       .  A
C417        C422   1.412       .  A
C417       Br424   1.934       .  S
C418        C419   1.411       .  A
C419        C420   1.406       .  A
C419       Br426   1.935       .  S
C420        C421   1.411       .  A
C420       Br425   1.923       .  S
C421        C422   1.419       .  A
C422       Br423   1.934       .  S
C427        C428   1.411       .  A
C427        C432   1.406       .  A
C427       Br434   1.932       .  S
C428        C429   1.414       .  A
C429        C430   1.412       .  A
C429       Br436   1.931       .  S
C430        C431   1.414       .  A
C430       Br435   1.933       .  S
C431        C432   1.409       .  A
C432       Br433   1.931       .  S
C437        C438   1.417       .  A
C437        C442   1.416       .  A
C437       Br444   1.931       .  S
C438        C439   1.418       .  A
C439        C440   1.408       .  A
C439       Br446   1.938       .  S
C440        C441   1.418       .  A
C440       Br445   1.938       .  S
C441        C442   1.414       .  A
C442       Br443   1.923       .  S
C447        C448   1.408       .  A
C447        C452   1.408       .  A
C447       Br454   1.928       .  S
C448        C449   1.408       .  A
C449        C450   1.407       .  A
C449       Br456   1.930       .  S
C450        C451   1.409       .  A
C450       Br455   1.927       .  S
C451        C452   1.409       .  A
C452       Br453   1.930       .  S
C457        C458   1.409       .  A
C457        C462   1.410       .  A
C457       Br464   1.936       .  S
C458        C459   1.409       .  A
C459        C460   1.415       .  A
C459       Br466   1.932       .  S
C460        C461   1.423       .  A
C460       Br465   1.933       .  S
C461        C462   1.415       .  A
C462       Br463   1.916       .  S
C467        C468   1.406       .  A
C467        C472   1.408       .  A
C467       Br474   1.927       .  S
C468        C469   1.409       .  A
C469        C470   1.402       .  A
C469       Br476   1.932       .  S
C470        C471   1.407       .  A
C470       Br475   1.930       .  S
C471        C472   1.409       .  A
C472       Br473   1.928       .  S
C477        C478   1.408       .  A
C477        C482   1.411       .  A
C477       Br484   1.923       .  S
C478        C479   1.414       .  A
C479        C480   1.410       .  A
C479       Br486   1.940       .  S
C480        C481   1.424       .  A
C480       Br485   1.938       .  S
C481        C482   1.421       .  A
C482       Br483   1.935       .  S
C487        C488   1.408       .  A
C487        C492   1.403       .  A
C487       Br494   1.933       .  S
C488        C489   1.409       .  A
C489        C490   1.409       .  A
C489       Br496   1.928       .  S
C490        C491   1.407       .  A
C490       Br495   1.927       .  S
C491        C492   1.411       .  A
C492       Br493   1.931       .  S
C497        C498   1.409       .  A
C497        C502   1.408       .  A
C497       Br504   1.944       .  S
C498        C499   1.407       .  A
C499        C500   1.417       .  A
C499       Br506   1.927       .  S
C500        C501   1.428       .  A
C500       Br505   1.934       .  S
C501        C502   1.434       .  A
C502       Br503   1.943       .  S
C507        C508   1.410       .  A
C507        C512   1.410       .  A
C507       Br514   1.929       .  S
C508        C509   1.410       .  A
C509        C510   1.403       .  A
C509       Br516   1.934       .  S
C510        C511   1.410       .  A
C510       Br515   1.933       .  S
C511        C512   1.409       .  A
C512       Br513   1.928       .  S
C517        C518   1.411       .  A
C517        C522   1.415       .  A
C517       Br524   1.933       .  S
C518        C519   1.411       .  A
C519        C520   1.408       .  A
C519       Br526   1.936       .  S
C520        C521   1.414       .  A
C520       Br525   1.920       .  S
C521        C522   1.424       .  A
C522       Br523   1.935       .  S
C527        C528   1.408       .  A
C527        C532   1.409       .  A
C527       Br534   1.927       .  S
C528        C529   1.408       .  A
C529        C530   1.408       .  A
C529       Br536   1.931       .  S
C530        C531   1.411       .  A
C530       Br535   1.929       .  S
C531        C532   1.408       .  A
C532       Br533   1.927       .  S
C537        C538   1.414       .  A
C537        C542   1.414       .  A
C537       Br544   1.933       .  S
C538        C539   1.412       .  A
C539        C540   1.404       .  A
C539       Br546   1.935       .  S
C540        C541   1.409       .  A
C540       Br545   1.923       .  S
C541        C542   1.417       .  A
C542       Br543   1.931       .  S
C547        C548   1.405       .  A
C547        C552   1.412       .  A
C547       Br554   1.927       .  S
C548        C549   1.405       .  A
C549        C550   1.414       .  A
C549       Br556   1.932       .  S
C550        C551   1.428       .  A
C550       Br555   1.936       .  S
C551        C552   1.431       .  A
C552       Br553   1.940       .  S
C557        C558   1.416       .  A
C557        C562   1.411       .  A
C557       Br564   1.934       .  S
C558        C559   1.415       .  A
C559        C560   1.413       .  A
C559       Br566   1.930       .  S
C560        C561   1.410       .  A
C560       Br565   1.930       .  S
C561        C562   1.411       .  A
C562       Br563   1.933       .  S
C567        C568   1.415       .  A
C567        C572   1.407       .  A
C567       Br574   1.923       .  S
C568        C569   1.418       .  A
C569        C570   1.409       .  A
C569       Br576   1.926       .  S
C570        C571   1.405       .  A
C570       Br575   1.922       .  S
C571        C572   1.404       .  A
C572       Br573   1.927       .  S
C577        C578   1.414       .  A
C577        C582   1.414       .  A
C577       Br584   1.930       .  S
C578        C579   1.417       .  A
C579        C580   1.406       .  A
C579       Br586   1.939       .  S
C580        C581   1.415       .  A
C580       Br585   1.939       .  S
C581        C582   1.413       .  A
C582       Br583   1.923       .  S
C587        C588   1.417       .  A
C587        C592   1.405       .  A
C587       Br594   1.940       .  S
C588        C589   1.415       .  A
C589        C590   1.418       .  A
C589       Br596   1.922       .  S
C590        C591   1.414       .  A
C590       Br595   1.926       .  S
C591        C592   1.415       .  A
C592       Br593   1.937       .  S
C597        C598   1.406       .  A
C597        C602   1.409       .  A
C597       Br604   1.932       .  S
C598        C599   1.406       .  A
C599        C600   1.409       .  A
C599       Br606   1.930       .  S
C600        C601   1.421       .  A
C600       Br605   1.937       .  S
C601        C602   1.415       .  A
C602       Br603   1.919       .  S
C607        C608   1.415       .  A
C607        C612   1.409       .  A
C607       Br614   1.920       .  S
C608        C609   1.422       .  A
C609        C610   1.409       .  A
C609       Br616   1.936       .  S
C610        C611   1.407       .  A
C610       Br615   1.933       .  S
C611        C612   1.406       .  A
C612       Br613   1.933       .  S
C617        C618   1.412       .  A
C617        C622   1.409       .  A
C617       Br624   1.934       .  S
C618        C619   1.413       .  A
C619        C620   1.412       .  A
C619       Br626   1.930       .  S
C620        C621   1.419       .  A
C620       Br625   1.937       .  S
C621        C622   1.411       .  A
C622       Br623   1.921       .  S
C627        C628   1.418       .  A
C627        C632   1.402       .  A
C627       Br634   1.936       .  S
C628        C629   1.420       .  A
C629        C630   1.419       .  A
C629       Br636   1.927       .  S
C630        C631   1.412       .  A
C630       Br635   1.926       .  S
C631        C632   1.413       .  A
C632       Br633   1.941       .  S
C637        C638   1.409       .  A
C637        C642   1.408       .  A
C637       Br644   1.929       .  S
C638        C639   1.409       .  A
C639        C640   1.407       .  A
C639       Br646   1.929       .  S
C640        C641   1.407       .  A
C640       Br645   1.928       .  S
C641        C642   1.408       .  A
C642       Br643   1.928       .  S
C647        C648   1.411       .  A
C647        C652   1.403       .  A
C647       Br654   1.927       .  S
C648        C649   1.410       .  A
C649        C650   1.413       .  A
C649       Br656   1.927       .  S
C650        C651   1.410       .  A
C650       Br655   1.927       .  S
C651        C652   1.406       .  A
C652       Br653   1.932       .  S
C657        C658   1.415       .  A
C657        C662   1.405       .  A
C657       Br664   1.932       .  S
C658        C659   1.415       .  A
C659        C660   1.412       .  A
C659       Br666   1.927       .  S
C660        C661   1.416       .  A
C660       Br665   1.935       .  S
C661        C662   1.407       .  A
C662       Br663   1.933       .  S
C667        C668   1.416       .  A
C667        C672   1.416       .  A
C667       Br674   1.929       .  S
C668        C669   1.420       .  A
C669        C670   1.408       .  A
C669       Br676   1.930       .  S
C670        C671   1.406       .  A
C670       Br675   1.932       .  S
C671        C672   1.410       .  A
C672       Br673   1.929       .  S
C677        C678   1.419       .  A
C677        C682   1.412       .  A
C677       Br684   1.937       .  S
C678        C679   1.413       .  A
C679        C680   1.410       .  A
C679       Br686   1.921       .  S
C680        C681   1.412       .  A
C680       Br685   1.936       .  S
C681        C682   1.413       .  A
C682       Br683   1.931       .  S
C687        C688   1.410       .  A
C687        C692   1.407       .  A
C687       Br694   1.928       .  S
C688        C689   1.411       .  A
C689        C690   1.409       .  A
C689       Br696   1.928       .  S
C690        C691   1.411       .  A
C690       Br695   1.932       .  S
C691        C692   1.407       .  A
C692       Br693   1.929       .  S
C697        C698   1.415       .  A
C697        C702   1.415       .  A
C697       Br704   1.931       .  S
C698        C699   1.419       .  A
C699        C700   1.405       .  A
C699       Br706   1.939       .  S
C700        C701   1.414       .  A
C700       Br705   1.940       .  S
C701        C702   1.413       .  A
C702       Br703   1.923       .  S
C707        C708   1.409       .  A
C707        C712   1.409       .  A
C707       Br714   1.929       .  S
C708        C709   1.409       .  A
C709        C710   1.409       .  A
C709       Br716   1.928       .  S
C710        C711   1.408       .  A
C710       Br715   1.929       .  S
C711        C712   1.409       .  A
C712       Br713   1.928       .  S
C717        C718   1.418       .  A
C717        C722   1.413       .  A
C717       Br724   1.929       .  S
C718        C719   1.413       .  A
C719        C720   1.404       .  A
C719       Br726   1.924       .  S
C720        C721   1.409       .  A
C720       Br725   1.937       .  S
C721        C722   1.414       .  A
C722       Br723   1.935       .  S
C727        C728   1.414       .  A
C727        C732   1.409       .  A
C727       Br734   1.919       .  S
C728        C729   1.424       .  A
C729        C730   1.415       .  A
C729       Br736   1.935       .  S
C730        C731   1.410       .  A
C730       Br735   1.932       .  S
C731        C732   1.409       .  A
C732       Br733   1.935       .  S
C737        C738   1.410       .  A
C737        C742   1.409       .  A
C737       Br744   1.929       .  S
C738        C739   1.409       .  A
C739        C740   1.408       .  A
C739       Br746   1.929       .  S
C740        C741   1.407       .  A
C740       Br745   1.928       .  S
C741        C742   1.409       .  A
C742       Br743   1.928       .  S
C747        C748   1.409       .  A
C747        C752   1.411       .  A
C747       Br754   1.928       .  S
C748        C749   1.410       .  A
C749        C750   1.406       .  A
C749       Br756   1.934       .  S
C750        C751   1.411       .  A
C750       Br755   1.928       .  S
C751        C752   1.409       .  A
C752       Br753   1.928       .  S
C757        C758   1.419       .  A
C757        C762   1.406       .  A
C757       Br764   1.938       .  S
C758        C759   1.419       .  A
C759        C760   1.417       .  A
C759       Br766   1.931       .  S
C760        C761   1.412       .  A
C760       Br765   1.924       .  S
C761        C762   1.415       .  A
C762       Br763   1.939       .  S
C767        C768   1.408       .  A
C767        C772   1.408       .  A
C767       Br774   1.929       .  S
C768        C769   1.411       .  A
C769        C770   1.407       .  A
C769       Br776   1.930       .  S
C770        C771   1.408       .  A
C770       Br775   1.930       .  S
C771        C772   1.409       .  A
C772       Br773   1.928       .  S
C777        C778   1.410       .  A
C777        C782   1.405       .  A
C777       Br784   1.933       .  S
C778        C779   1.413       .  A
C779        C780   1.413       .  A
C779       Br786   1.929       .  S
C780        C781   1.409       .  A
C780       Br785   1.927       .  S
C781        C782   1.410       .  A
C782       Br783   1.930       .  S
C787        C788   1.428       .  A
C787        C792   1.408       .  A
C787       Br794   1.939       .  S
C788        C789   1.421       .  A
C789        C790   1.408       .  A
C789       Br796   1.935       .  S
C790        C791   1.405       .  A
C790       Br795   1.934       .  S
C791        C792   1.404       .  A
C792       Br793   1.937       .  S
C797        C798   1.410       .  A
C797        C802   1.400       .  A
C797       Br804   1.936       .  S
C798        C799   1.410       .  A
C799        C800   1.415       .  A
C799       Br806   1.927       .  S
C800        C801   1.414       .  A
C800       Br805   1.928       .  S
C801        C802   1.410       .  A
C802       Br803   1.929       .  S
C807        C808   1.420       .  A
C807        C812   1.411       .  A
C807       Br814   1.932       .  S
C808        C809   1.421       .  A
C809        C810   1.409       .  A
C809       Br816   1.934       .  S
C810        C811   1.404       .  A
C810       Br815   1.931       .  S
C811        C812   1.408       .  A
C812       Br813   1.934       .  S
C817        C818   1.416       .  A
C817        C822   1.407       .  A
C817       Br824   1.935       .  S
C818        C819   1.412       .  A
C819        C820   1.414       .  A
C819       Br826   1.929       .  S
C820        C821   1.410       .  A
C820       Br825   1.927       .  S
C821        C822   1.407       .  A
C822       Br823   1.932       .  S
C827        C828   1.408   1_655  A
C827        C832   1.408       .  A
C827       Br834   1.919       .  S
C828        C829   1.406       .  A
C829        C830   1.397       .  A
C829       Br836   1.921       .  S
C830        C831   1.407   1_455  A
C830       Br835   1.928       .  S
C831        C832   1.411       .  A
C832       Br833   1.924       .  S
C837        C838   1.410   1_455  A
C837        C842   1.410       .  A
C837       Br844   1.932       .  S
C838        C839   1.408       .  A
C839        C840   1.402       .  A
C839       Br846   1.938       .  S
C840        C841   1.413       .  A
C840       Br845   1.927       .  S
C841        C842   1.417   1_655  A
C842       Br843   1.931       .  S
C847        C848   1.420       .  A
C847        C852   1.412       .  A
C847       Br854   1.932       .  S
C848        C849   1.428       .  A
C849        C850   1.406       .  A
C849       Br856   1.939       .  S
C850        C851   1.402       .  A
C850       Br855   1.935       .  S
C851        C852   1.406       .  A
C852       Br853   1.930       .  S
C857        C858   1.408       .  A
C857        C862   1.416       .  A
C857       Br864   1.926       .  S
C858        C859   1.406       .  A
C859        C860   1.402       .  A
C859       Br866   1.936       .  S
C860        C861   1.416       .  A
C860       Br865   1.932       .  S
C861        C862   1.416       .  A
C862       Br863   1.928       .  S
C867        C868   1.409       .  A
C867        C872   1.415       .  A
C867       Br874   1.931       .  S
C868        C869   1.409       .  A
C869        C870   1.412       .  A
C869       Br876   1.934       .  S
C870        C871   1.423       .  A
C870       Br875   1.935       .  S
C871        C872   1.428       .  A
C872       Br873   1.935       .  S
C877        C878   1.411       .  A
C877        C882   1.406       .  A
C877       Br884   1.934       .  S
C878        C879   1.410       .  A
C879        C880   1.411       .  A
C879       Br886   1.929       .  S
C880        C881   1.410       .  A
C880       Br885   1.928       .  S
C881        C882   1.408       .  A
C882       Br883   1.927       .  S
C887        C888   1.412   1_655  A
C887        C892   1.405       .  A
C887       Br894   1.937       .  S
C888        C889   1.409       .  A
C889        C890   1.411       .  A
C889       Br896   1.932       .  S
C890        C891   1.417       .  A
C890       Br895   1.927       .  S
C891        C892   1.413   1_455  A
C892       Br893   1.926       .  S
C897        C898   1.408       .  A
C897        C902   1.414       .  A
C897       Br904   1.929       .  S
C898        C899   1.402       .  A
C899        C900   1.407   1_455  A
C899       Br906   1.929   1_455  S
C900        C901   1.416   1_655  A
C900       Br905   1.923       .  S
C901        C902   1.419       .  A
C902       Br903   1.924       .  S
C907        C908   1.418       .  A
C907        C912   1.410       .  A
C907       Br914   1.936       .  S
C908        C909   1.421       .  A
C909        C910   1.414       .  A
C909       Br916   1.936       .  S
C910        C911   1.414       .  A
C910       Br915   1.933       .  S
C911        C912   1.419       .  A
C912       Br913   1.939       .  S
C917        C918   1.422       .  A
C917        C922   1.406       .  A
C917       Br924   1.939       .  S
C918        C919   1.416       .  A
C919        C920   1.414       .  A
C919       Br926   1.929       .  S
C920        C921   1.408       .  A
C920       Br925   1.929       .  S
C921        C922   1.405       .  A
C922       Br923   1.934       .  S
C927        C928   1.407       .  A
C927        C932   1.411       .  A
C927       Br934   1.929       .  S
C928        C929   1.409       .  A
C929        C930   1.409       .  A
C929       Br936   1.931       .  S
C930        C931   1.412       .  A
C930       Br935   1.931       .  S
C931        C932   1.415       .  A
C932       Br933   1.930       .  S
C937        C938   1.416       .  A
C937        C942   1.410       .  A
C937       Br944   1.933       .  S
C938        C939   1.418       .  A
C939        C940   1.414       .  A
C939       Br946   1.932       .  S
C940        C941   1.410       .  A
C940       Br945   1.932       .  S
C941        C942   1.409       .  A
C942       Br943   1.932       .  S
C947        C948   1.413   1_565  A
C947        C952   1.411       .  A
C947       Br954   1.934       .  S
C948        C949   1.414       .  A
C949        C950   1.403       .  A
C949       Br956   1.940       .  S
C950        C951   1.412   1_545  A
C950       Br955   1.926       .  S
C951        C952   1.416       .  A
C952       Br953   1.927       .  S
C957        C958   1.405       .  A
C957        C962   1.404       .  A
C957       Br964   1.931       .  S
C958        C959   1.409   1_565  A
C959        C960   1.410       .  A
C959       Br966   1.932       .  S
C960        C961   1.415   1_545  A
C960       Br965   1.924       .  S
C961        C962   1.414       .  A
C962       Br963   1.926       .  S
C967        C968   1.406       .  A
C967        C972   1.412       .  A
C967       Br974   1.928       .  S
C968        C969   1.405       .  A
C969        C970   1.401       .  A
C969       Br976   1.934       .  S
C970        C971   1.417       .  A
C970       Br975   1.936       .  S
C971        C972   1.418       .  A
C972       Br973   1.930       .  S
C977        C978   1.424       .  A
C977        C982   1.413       .  A
C977       Br984   1.934       .  S
C978        C979   1.427       .  A
C979        C980   1.408       .  A
C979       Br986   1.936       .  S
C980        C981   1.404       .  A
C980       Br985   1.937       .  S
C981        C982   1.405       .  A
C982       Br983   1.932       .  S
C987        C988   1.413       .  A
C987        C992   1.412       .  A
C987       Br994   1.928       .  S
C988        C989   1.409       .  A
C989        C990   1.409       .  A
C989       Br996   1.930       .  S
C990        C991   1.410       .  A
C990       Br995   1.918       .  S
C991        C992   1.409       .  A
C992       Br993   1.929       .  S
C997        C998   1.412       .  A
C997       C1002   1.407       .  A
C997      Br1004   1.932       .  S
C998        C999   1.409       .  A
C999       C1000   1.407       .  A
C999      Br1006   1.930       .  S
C1000      C1001   1.410       .  A
C1000     Br1005   1.930       .  S
C1001      C1002   1.409       .  A
C1002     Br1003   1.931       .  S
C1007      C1008   1.405       .  A
C1007      C1012   1.406       .  A
C1007     Br1014   1.916       .  S
C1008      C1009   1.405       .  A
C1009      C1010   1.407       .  A
C1009     Br1016   1.936       .  S
C1010      C1011   1.419       .  A
C1010     Br1015   1.919       .  S
C1011      C1012   1.412       .  A
C1012     Br1013   1.925       .  S
C1017      C1018   1.416       .  A
C1017      C1022   1.407       .  A
C1017     Br1024   1.937       .  S
C1018      C1019   1.415       .  A
C1019      C1020   1.414       .  A
C1019     Br1026   1.934       .  S
C1020      C1021   1.417       .  A
C1020     Br1025   1.929       .  S
C1021      C1022   1.412       .  A
C1022     Br1023   1.928       .  S
C1027      C1028   1.407       .  A
C1027      C1032   1.410       .  A
C1027     Br1034   1.930       .  S
C1028      C1029   1.413       .  A
C1029      C1030   1.414       .  A
C1029     Br1036   1.933       .  S
C1030      C1031   1.415       .  A
C1030     Br1035   1.929       .  S
C1031      C1032   1.416       .  A
C1032     Br1033   1.929       .  S
C1037      C1038   1.409       .  A
C1037      C1042   1.409       .  A
C1037     Br1044   1.932       .  S
C1038      C1039   1.406       .  A
C1039      C1040   1.411       .  A
C1039     Br1046   1.929       .  S
C1040      C1041   1.416       .  A
C1040     Br1045   1.930       .  S
C1041      C1042   1.414       .  A
C1042     Br1043   1.931       .  S
C1047      C1048   1.406       .  A
C1047      C1052   1.414       .  A
C1047     Br1054   1.929       .  S
C1048      C1049   1.404       .  A
C1049      C1050   1.408       .  A
C1049     Br1056   1.934       .  S
C1050      C1051   1.425       .  A
C1050     Br1055   1.936       .  S
C1051      C1052   1.419       .  A
C1052     Br1053   1.931       .  S
C1057      C1058   1.415       .  A
C1057      C1062   1.415       .  A
C1057     Br1064   1.927       .  S
C1058      C1059   1.413       .  A
C1059      C1060   1.405       .  A
C1059     Br1066   1.924       .  S
C1060      C1061   1.407       .  A
C1060     Br1065   1.933       .  S
C1061      C1062   1.407       .  A
C1062     Br1063   1.926       .  S
C1067      C1068   1.410       .  A
C1067      C1072   1.400       .  A
C1067     Br1074   1.937       .  S
C1068      C1069   1.412   1_545  A
C1069      C1070   1.414       .  A
C1069     Br1076   1.931       .  S
C1070      C1071   1.421       .  A
C1070     Br1075   1.929       .  S
C1071      C1072   1.413   1_565  A
C1072     Br1073   1.927       .  S
C1077      C1078   1.415   1_545  A
C1077      C1082   1.404       .  A
C1077     Br1084   1.923       .  S
C1078      C1079   1.418       .  A
C1079      C1080   1.409       .  A
C1079     Br1086   1.924       .  S
C1080      C1081   1.406       .  A
C1080     Br1085   1.932       .  S
C1081      C1082   1.408   1_565  A
C1082     Br1083   1.938       .  S
