geometry optimzed in LAMMPS
_audit_creation_date              2020-11-30 
_audit_creation_method            'lammps2cif' 
_symmetry_space_group_name_H-M    'P1' 
_symmetry_Int_Tables_number       1 
_symmetry_cell_setting            triclinic 
loop_ 
_symmetry_equiv_pos_as_xyz 
  x,y,z 
_cell_length_a                    36.77057678 
_cell_length_b                    36.80486879407439 
_cell_length_c                    92.7306565791264 
_cell_angle_alpha                 90.02553946748503 
_cell_angle_beta                  90.11168402196586 
_cell_angle_gamma                 120.44075451095097 
loop_ 
_atom_site_label 
_atom_site_type_symbol 
_atom_site_fract_x 
_atom_site_fract_y 
_atom_site_fract_z 
_atom_site_charge 
N1          N  0.71357955  0.01836409  0.73365711    -0.03300
C2          C  0.72008365  0.03037225  0.74771476    -0.00700
C3          C  0.71013692  0.99630458  0.75646254    -0.23600
C4          C  0.69573349  0.96187743  0.74753798    -0.23800
C5          C  0.69676419  0.97578908  0.73359562    -0.00800
H6          H  0.70846731  0.99558978  0.76811883     0.13000
H7          H  0.67979178  0.92938633  0.75107502     0.13000
N8          N  0.90532431  0.17347047  0.65208566    -0.03300
C9          C  0.89796026  0.16143015  0.63797945    -0.00700
C10         C  0.91406434  0.19623871  0.62909206    -0.23600
C11         C  0.93269119  0.23093296  0.63785464    -0.23800
C12         C  0.92743043  0.21639047  0.65185836    -0.00800
H13         H  0.91639530  0.19639287  0.61745348     0.13000
H14         H  0.95247787  0.26318692  0.63431602     0.13000
N15         N  0.51522918  0.80033920  0.83949485    -0.03300
C16         C  0.47884504  0.77015335  0.83305849    -0.00700
C17         C  0.44508059  0.77383195  0.83761629    -0.23600
C18         C  0.46089327  0.80833399  0.84648143    -0.23800
C19         C  0.50394731  0.82486032  0.84712548    -0.00800
H20         H  0.41318158  0.75663769  0.83344685     0.13000
H21         H  0.44352123  0.82260468  0.85061035     0.13000
N22         N  0.72592493  0.72957077  0.87625309    -0.03300
C23         C  0.75999916  0.76197072  0.88296441    -0.00700
C24         C  0.79635823  0.76193048  0.87922669    -0.23600
C25         C  0.78455896  0.72784561  0.87044676    -0.23800
C26         C  0.74129741  0.70812238  0.86897373    -0.00800
H27         H  0.82728816  0.78104756  0.88401503     0.13000
H28         H  0.80476302  0.71622532  0.86680551     0.13000
N29         N  0.85658568  0.46820013  0.50295076    -0.03300
C30         C  0.82217774  0.43561511  0.49643281    -0.00700
C31         C  0.78623162  0.43667911  0.49998072    -0.23600
C32         C  0.79870601  0.47175607  0.50832436    -0.23800
C33         C  0.84199152  0.49116069  0.50972146    -0.00800
H34         H  0.75519657  0.41758544  0.49526655     0.13000
H35         H  0.77898075  0.48435617  0.51154115     0.13000
N36         N  0.07160716  0.40578964  0.54237241    -0.03300
C37         C  0.10654562  0.43759497  0.54889350    -0.00700
C38         C  0.14211633  0.43712908  0.54433349    -0.23600
C39         C  0.12878018  0.40278539  0.53552217    -0.23800
C40         C  0.08547791  0.38344347  0.53480519    -0.00800
H41         H  0.17349749  0.45539102  0.54887096     0.13000
H42         H  0.14787585  0.38991088  0.53184613     0.13000
N43         N  0.60494751  0.45219330  0.00534715    -0.03300
C44         C  0.60967430  0.42189534  0.99854988    -0.00700
C45         C  0.64727059  0.42511058  0.00296253    -0.23600
C46         C  0.66785056  0.46015919  0.01155246    -0.23800
C47         C  0.64193123  0.47694619  0.01244805    -0.00800
H48         H  0.66183217  0.40867570  0.99824641     0.13000
H49         H  0.70035926  0.47485273  0.01507754     0.13000
N50         N  0.33108562  0.39133306  0.04860829    -0.03300
C51         C  0.32782610  0.42185374  0.05591345    -0.00700
C52         C  0.28765721  0.41568434  0.05436629    -0.23600
C53         C  0.26505765  0.38026182  0.04617050    -0.23800
C54         C  0.29200348  0.36576260  0.04285616    -0.00800
H55         H  0.27487229  0.43260926  0.05993144     0.13000
H56         H  0.23153180  0.36454872  0.04398738     0.13000
N57         N  0.00126036  0.73512720  0.37861833    -0.03300
C58         C  0.99265024  0.76278933  0.38523497    -0.00700
C59         C  0.95235757  0.75385137  0.38188724    -0.23600
C60         C  0.93518401  0.71902899  0.37312543    -0.23800
C61         C  0.96549906  0.70774299  0.37142125    -0.00800
H62         H  0.93549656  0.76773683  0.38676205     0.13000
H63         H  0.90233658  0.70061300  0.36998228     0.13000
N64         N  0.27779906  0.80064893  0.33826521    -0.03300
C65         C  0.28562577  0.77183664  0.33210465    -0.00700
C66         C  0.32315743  0.77677990  0.33718618    -0.23600
C67         C  0.33982519  0.81077586  0.34636351    -0.23800
C68         C  0.31210914  0.82576435  0.34654048    -0.00800
H69         H  0.33946679  0.76133841  0.33311166     0.13000
H70         H  0.37172794  0.82680990  0.35055303     0.13000
N71         N  0.25636617  0.17502635  0.14903890    -0.03300
C72         C  0.24811039  0.16277174  0.13497045    -0.00700
C73         C  0.25766651  0.19672550  0.12618601    -0.23600
C74         C  0.27154959  0.23104762  0.13499686    -0.23800
C75         C  0.27021519  0.21712556  0.14890218    -0.00800
H76         H  0.25090761  0.19572606  0.11477682     0.13000
H77         H  0.27869952  0.26223076  0.13174983     0.13000
N78         N  0.33715525  0.03966900  0.22560184    -0.03300
C79         C  0.34208642  0.05076045  0.23977699    -0.00700
C80         C  0.32350089  0.01555087  0.24845280    -0.23600
C81         C  0.30738362  0.98143822  0.23944524    -0.23800
C82         C  0.31673767  0.99676770  0.22551277    -0.00800
H83         H  0.32623669  0.01482512  0.26006220     0.13000
H84         H  0.29561996  0.94918194  0.24277428     0.13000
N85         N  0.11922408  0.62593690  0.83848007    -0.03300
C86         C  0.15174326  0.62322807  0.83248938    -0.00700
C87         C  0.14971747  0.58621892  0.83671511    -0.23600
C88         C  0.11368574  0.56400966  0.84462990    -0.23800
C89         C  0.09486710  0.58825071  0.84520496    -0.00800
H90         H  0.16857294  0.57361826  0.83253849     0.13000
H91         H  0.10012036  0.53158068  0.84804786     0.13000
N92         N  0.17703260  0.90375041  0.87695516    -0.03300
C93         C  0.14402394  0.90603721  0.88271624    -0.00700
C94         C  0.14421613  0.94153108  0.87771928    -0.23600
C95         C  0.17912751  0.96306338  0.86923659    -0.23800
C96         C  0.19923337  0.94006945  0.86920019    -0.00800
H97         H  0.12450835  0.95358999  0.88150853     0.13000
H98         H  0.19134196  0.99460366  0.86506453     0.13000
N99         N  0.77279651  0.71709892  0.66850129    -0.03300
C100        C  0.80398166  0.75208506  0.66184582    -0.00700
C101        C  0.80053449  0.78681411  0.66527237    -0.23600
C102        C  0.76557553  0.77289648  0.67380072    -0.23800
C103        C  0.74873964  0.73006251  0.67541580    -0.00800
H104        H  0.81824063  0.81788027  0.66052514     0.13000
H105        H  0.75164275  0.79124709  0.67723857     0.13000
N106        N  0.83972124  0.50492150  0.70710890    -0.03300
C107        C  0.80926016  0.46962381  0.71385452    -0.00700
C108        C  0.81211136  0.43502719  0.70972165    -0.23600
C109        C  0.84614820  0.44933848  0.70071292    -0.23800
C110        C  0.86305399  0.49225867  0.69949824    -0.00800
H111        H  0.79495334  0.40376119  0.71434806     0.13000
H112        H  0.86014888  0.43132220  0.69697332     0.13000
N113        N  0.44385485  0.29845596  0.50554226    -0.03300
C114        C  0.47280156  0.28983550  0.49979203    -0.00700
C115        C  0.46726234  0.25256879  0.50534176    -0.23600
C116        C  0.43296164  0.23670879  0.51429857    -0.23800
C117        C  0.41828385  0.26459874  0.51397332    -0.00800
H118        H  0.48257539  0.23572097  0.50167472     0.13000
H119        H  0.41686454  0.20532237  0.51885547     0.13000
N120        N  0.50547723  0.57643687  0.54404608    -0.03300
C121        C  0.47610915  0.58310384  0.55044122    -0.00700
C122        C  0.47895510  0.61976620  0.54546827    -0.23600
C123        C  0.51209911  0.63725623  0.53601966    -0.23800
C124        C  0.52849295  0.61075934  0.53555717    -0.00800
H125        H  0.46204836  0.63460481  0.54953377     0.13000
H126        H  0.52623345  0.66864897  0.53152120     0.13000
N127        N  0.42638877  0.04082445  0.99788350    -0.03300
C128        C  0.45188838  0.07434723  0.98936657    -0.00700
C129        C  0.43718415  0.10224086  0.98859289    -0.23600
C130        C  0.40140980  0.08575071  0.99671055    -0.23800
C131        C  0.39537705  0.04831837  0.00217715    -0.00800
H132        H  0.44937092  0.12997295  0.98184534     0.13000
H133        H  0.38059281  0.09835118  0.99782247     0.13000
N134        N  0.54526945  0.90762927  0.06069651    -0.03300
C135        C  0.53736605  0.90166249  0.07513481    -0.00700
C136        C  0.57428459  0.91743278  0.08290975    -0.23600
C137        C  0.60623470  0.93256083  0.07305270    -0.23800
C138        C  0.58792168  0.92540912  0.05951941    -0.00800
H139        H  0.57727957  0.91433066  0.09439433     0.13000
H140        H  0.63879352  0.94239183  0.07541690     0.13000
N141        N  0.22123208  0.26471567  0.39860422    -0.03300
C142        C  0.21208603  0.26247190  0.41291820    -0.00700
C143        C  0.24859917  0.28547052  0.42086194    -0.23600
C144        C  0.28145650  0.30124329  0.41128482    -0.23800
C145        C  0.26419312  0.28734413  0.39773592    -0.00800
H146        H  0.25147991  0.28568805  0.43248696     0.13000
H147        H  0.31453300  0.31616887  0.41413051     0.13000
N148        N  0.06170049  0.30344896  0.31891377    -0.03300
C149        C  0.07344758  0.30856927  0.30475018    -0.00700
C150        C  0.03876113  0.28640334  0.29592403    -0.23600
C151        C  0.00422419  0.26793609  0.30471525    -0.23800
C152        C  0.01873598  0.27935257  0.31867917    -0.00800
H153        H  0.03824147  0.28734017  0.28426147     0.13000
H154        H  0.97166434  0.25210220  0.30117735     0.13000
N155        N  0.83301107  0.25234383  0.20874876    -0.03300
C156        C  0.80525269  0.26121840  0.21523707    -0.00700
C157        C  0.81398354  0.30116002  0.21152214    -0.23600
C158        C  0.84881995  0.31794007  0.20281130    -0.23800
C159        C  0.86058782  0.28789722  0.20144402    -0.00800
H160        H  0.80001938  0.31825358  0.21615547     0.13000
H161        H  0.86716423  0.35065545  0.19958779     0.13000
N162        N  0.77093757  0.97849419  0.16626090    -0.03300
C163        C  0.80034006  0.97249947  0.15951541    -0.00700
C164        C  0.80018008  0.93766318  0.16509706    -0.23600
C165        C  0.76867969  0.92055173  0.17517335    -0.23800
C166        C  0.75032393  0.94530005  0.17539421    -0.00800
H167        H  0.81676727  0.92276227  0.16079074     0.13000
H168        H  0.75616269  0.88974633  0.18001968     0.13000
N169        N  0.54166597  0.64024353  0.33500205    -0.03300
C170        C  0.50638131  0.63675377  0.32878834    -0.00700
C171        C  0.47107923  0.59945619  0.33289315    -0.23600
C172        C  0.48481871  0.57827501  0.34132589    -0.23800
C173        C  0.52809313  0.60334460  0.34220441    -0.00800
H174        H  0.43954050  0.58634415  0.32853212     0.13000
H175        H  0.46593352  0.54598172  0.34493288     0.13000
N176        N  0.75146167  0.92626424  0.37180804    -0.03300
C177        C  0.78682838  0.93542928  0.37951655    -0.00700
C178        C  0.81868954  0.97608681  0.37649442    -0.23600
C179        C  0.80258366  0.99300591  0.36707522    -0.23800
C180        C  0.76128172  0.96226500  0.36456591    -0.00800
H181        H  0.84863835  0.99349273  0.38205913     0.13000
H182        H  0.81763652  0.02576607  0.36388620     0.13000
N183        N  0.41728143  0.24528685  0.70956049    -0.03300
C184        C  0.45601277  0.25617739  0.71508926    -0.00700
C185        C  0.48572375  0.29690402  0.71123509    -0.23600
C186        C  0.46505424  0.31250366  0.70354973    -0.23800
C187        C  0.42330471  0.28098964  0.70283300    -0.00800
H188        H  0.51805273  0.31499842  0.71495731     0.13000
H189        H  0.47823107  0.34484283  0.70006962     0.13000
N190        N  0.21036619  0.96818066  0.66626972    -0.03300
C191        C  0.17437400  0.96027533  0.65930773    -0.00700
C192        C  0.14064049  0.92228576  0.66368143    -0.23600
C193        C  0.15618824  0.90523545  0.67327059    -0.23800
C194        C  0.19905399  0.93319376  0.67441222    -0.00800
H195        H  0.10922428  0.90640061  0.65908039     0.13000
H196        H  0.13914662  0.87337864  0.67741634     0.13000
N197        N  0.56663009  0.95595020  0.48128990    -0.03300
C198        C  0.56059108  0.96069946  0.46703795    -0.00700
C199        C  0.57860356  0.94344037  0.45845259    -0.23600
C200        C  0.59719613  0.92833720  0.46750686    -0.23800
C201        C  0.59019420  0.93679831  0.48141000    -0.00800
H202        H  0.58209516  0.94600263  0.44684529     0.13000
H203        H  0.61827007  0.91735846  0.46425884     0.13000
N204        N  0.36077009  0.90154048  0.56019108    -0.03300
C205        C  0.36673315  0.89750688  0.57448303    -0.00700
C206        C  0.35119026  0.91768386  0.58280432    -0.23600
C207        C  0.33405107  0.93381338  0.57349471    -0.23800
C208        C  0.33951098  0.92295773  0.55974430    -0.00800
H209        H  0.34790304  0.91621422  0.59442208     0.13000
H210        H  0.31492802  0.94727623  0.57651850     0.13000
N211        N  0.65652354  0.48877742  0.20972690    -0.03300
C212        C  0.65045159  0.45491407  0.21764897    -0.00700
C213        C  0.60981439  0.42158281  0.21570321    -0.23600
C214        C  0.58971132  0.43530483  0.20670055    -0.23800
C215        C  0.61859307  0.47662907  0.20334690    -0.00800
H216        H  0.59489183  0.39213370  0.22158527     0.13000
H217        H  0.55625561  0.41870296  0.20434031     0.13000
N218        N  0.93432558  0.69311702  0.16594967    -0.03300
C219        C  0.93821233  0.72720845  0.15860975    -0.00700
C220        C  0.97798088  0.76183347  0.16065154    -0.23600
C221        C  0.99994216  0.74913865  0.16907589    -0.23800
C222        C  0.97304737  0.70705574  0.17209132    -0.00800
H223        H  0.99106219  0.79204045  0.15530928     0.13000
H224        H  0.03303524  0.76787124  0.17186872     0.13000
N225        N  0.86605484  0.29255232  0.00101790    -0.03300
C226        C  0.82916157  0.28336627  0.99439932    -0.00700
C227        C  0.79824091  0.24223788  0.99714144    -0.23600
C228        C  0.81653573  0.22488077  0.00531097    -0.23800
C229        C  0.85811770  0.25584229  0.00738254    -0.00800
H230        H  0.76722744  0.22522094  0.99225462     0.13000
H231        H  0.80247648  0.19178577  0.00792578     0.13000
N232        N  0.07356355  0.57041728  0.04407915    -0.03300
C233        C  0.10987606  0.57925897  0.05101413    -0.00700
C234        C  0.14304662  0.61737059  0.04645496    -0.23600
C235        C  0.12680394  0.63343208  0.03673726    -0.23800
C236        C  0.08406977  0.60480312  0.03567981    -0.00800
H237        H  0.17447808  0.63405854  0.05103474     0.13000
H238        H  0.14325085  0.66515124  0.03245708     0.13000
N239        N  0.27467365  0.37535398  0.83429140    -0.03300
C240        C  0.28167582  0.41273435  0.82865412    -0.00700
C241        C  0.31984970  0.44567629  0.83343729    -0.23600
C242        C  0.33809714  0.42850569  0.84168062    -0.23800
C243        C  0.31080994  0.38548413  0.84176765    -0.00800
H244        H  0.33524201  0.47810461  0.82985070     0.13000
H245        H  0.37041668  0.44500286  0.84548380     0.13000
N246        N  0.99878090  0.15636388  0.87581421    -0.03300
C247        C  0.99357163  0.12125020  0.88270295    -0.00700
C248        C  0.95474656  0.08676918  0.87941142    -0.23600
C249        C  0.93427415  0.10099592  0.87081844    -0.23800
C250        C  0.96106050  0.14383189  0.86908302    -0.00800
H251        H  0.94064381  0.05587646  0.88431269     0.13000
H252        H  0.90121452  0.08318976  0.86789252     0.13000
O253        O  0.64152656  0.19703983  0.81808506    -0.79900
O254        O  0.76105255  0.39384933  0.86512633    -0.81500
O255        O  0.72307616  0.34335591  0.81709368    -0.78500
O256        O  0.76382736  0.27616704  0.84734178    -0.76900
O257        O  0.73660452  0.23788062  0.86801494    -0.78700
O258        O  0.66524500  0.35129612  0.81577269    -0.79600
O259        O  0.77655255  0.36743575  0.84514885    -0.80900
O260        O  0.70947733  0.25261003  0.81873030    -0.81200
Eu261      Eu  0.71467442  0.29952431  0.83863106     2.39200
O262        O  0.71240006  0.30109117  0.86403531    -0.88700
O263        O  0.64565555  0.27233835  0.82969301    -0.92300
C264        C  0.67979327  0.21773085  0.81329172     1.02400
C265        C  0.78627676  0.39536469  0.85511096     1.02200
C266        C  0.70078407  0.35714290  0.81090967     1.02100
C267        C  0.76527239  0.25472262  0.85819801     1.00000
H268        H  0.70552169  0.37128642  0.84242027     0.29700
O269        O  0.68781726  0.34301756  0.84604382    -1.01100
H270        H  0.68090703  0.21234880  0.84437622     0.29800
O271        O  0.67008077  0.23024540  0.84730319    -1.03700
O272        O  0.64724396  0.35097135  0.89217173    -0.80900
O273        O  0.52584490  0.15452654  0.84457685    -0.80400
O274        O  0.63929351  0.38814926  0.84324471    -0.78900
O275        O  0.71121933  0.27085522  0.89367822    -0.82200
O276        O  0.64100527  0.15664191  0.86713272    -0.80100
O277        O  0.57793152  0.27619543  0.81535484    -0.78700
O278        O  0.52429470  0.27421076  0.86304971    -0.80200
O279        O  0.56462156  0.20501662  0.89199618    -0.82100
O280        O  0.55040071  0.31020195  0.84192045    -0.78900
O281        O  0.62256015  0.19721011  0.89353504    -0.81600
O282        O  0.67599011  0.40395679  0.86457452    -0.77300
O283        O  0.56757639  0.20934141  0.81600174    -0.77300
O284        O  0.60362160  0.14083723  0.84598972    -0.77000
O285        O  0.72038563  0.33728536  0.89362967    -0.80500
O286        O  0.58016476  0.29404909  0.89233617    -0.79900
O287        O  0.51164308  0.18149180  0.86466462    -0.78200
Eu288      Eu  0.68618843  0.34483238  0.87154990     2.39800
Eu289      Eu  0.60092925  0.20343393  0.83818088     2.39600
Eu290      Eu  0.61890448  0.31562086  0.83668942     2.38400
Eu291      Eu  0.66801298  0.23205390  0.87267776     2.39900
Eu292      Eu  0.57299766  0.24981327  0.87103498     2.39800
O293        O  0.59931173  0.20604731  0.86355967    -0.92600
O294        O  0.61760813  0.31814687  0.86210366    -0.91500
C295        C  0.61016749  0.32881650  0.89780901     1.02500
C296        C  0.50131415  0.15298671  0.85486051     1.01300
C297        C  0.65858143  0.41263390  0.85402949     1.00600
C298        C  0.72523032  0.30776479  0.89922541     1.02700
C299        C  0.61905631  0.13108141  0.85684286     1.01600
C300        C  0.56394578  0.23900808  0.81004293     1.00400
C301        C  0.52229327  0.29468080  0.85200304     1.00500
C302        C  0.58692150  0.19133549  0.89815284     1.03100
H303        H  0.54622747  0.23596910  0.84169269     0.30500
O304        O  0.57432301  0.24701359  0.84554669    -1.04800
H305        H  0.64114569  0.27616233  0.89028197     0.32500
O306        O  0.64183973  0.27580904  0.87988868    -1.07400
O307        O  0.88937008  0.85130659  0.98342062    -0.79900
O308        O  0.97050312  0.04723693  0.03044965    -0.81500
O309        O  0.84996969  0.93309183  0.01033118    -0.78500
O310        O  0.96586209  0.00106388  0.98328186    -0.76900
O311        O  0.03124620  0.00767585  0.98359833    -0.78700
O312        O  0.83056909  0.88752579  0.02942942    -0.79600
O313        O  0.93379641  0.02425432  0.00922955    -0.80900
O314        O  0.88434133  0.91083205  0.98279120    -0.81200
Eu315      Eu  0.92342581  0.95457986  0.00356898     2.39200
O316        O  0.99195431  0.99578874  0.01292311    -0.88700
O317        O  0.89490534  0.88466034  0.01187751    -0.92300
C318        C  0.87577860  0.87452106  0.97789074     1.02400
C319        C  0.95142882  0.05163282  0.01942156     1.02200
C320        C  0.82307523  0.90846636  0.01987152     1.02100
C321        C  0.00335247  0.01509104  0.97809686     1.00000
H322        H  0.90339201  0.96431551  0.03233329     0.29700
O323        O  0.92040433  0.95281842  0.02904717    -1.01100
H324        H  0.96586438  0.92744811  0.98520358     0.29800
O325        O  0.96519839  0.92683687  0.99559814    -1.03700
O326        O  0.03093196  0.99636162  0.05942564    -0.80900
O327        O  0.95954195  0.80589626  0.01007186    -0.80400
O328        O  0.88566470  0.92250355  0.05782912    -0.78900
O329        O  0.08400129  0.04326324  0.01196948    -0.82200
O330        O  0.04131436  0.93069159  0.98427802    -0.80100
O331        O  0.84295954  0.80816815  0.03082862    -0.78700
O332        O  0.96179112  0.85119652  0.05864533    -0.80200
O333        O  0.07577070  0.91888516  0.03253112    -0.82100
O334        O  0.89699735  0.84584495  0.05901112    -0.78900
O335        O  0.09409611  0.96099844  0.01249120    -0.81600
O336        O  0.94411299  0.98851929  0.05875255    -0.77300
O337        O  0.86762567  0.79379761  0.01016762    -0.77300
O338        O  0.98185718  0.86540435  0.98250741    -0.77000
O339        O  0.05826190  0.05607769  0.03264770    -0.80500
O340        O  0.04115481  0.93990109  0.05899393    -0.79900
O341        O  0.99588504  0.82911141  0.03136310    -0.78200
Eu342      Eu  0.98925963  0.99429538  0.03827545     2.39800
Eu343      Eu  0.93606340  0.85641964  0.00349777     2.39600
Eu344      Eu  0.89188022  0.88269494  0.03734883     2.38400
Eu345      Eu  0.03424603  0.96887800  0.00482562     2.39900
Eu346      Eu  0.00224369  0.89659595  0.03816974     2.39800
O347        O  0.00501392  0.89849149  0.01276742    -0.92600
O348        O  0.96071214  0.92434618  0.04634111    -0.91500
C349        C  0.04633095  0.97431257  0.06455211     1.02500
C350        C  0.97993155  0.80242391  0.02088775     1.01300
C351        C  0.90807851  0.95945107  0.06360509     1.00600
C352        C  0.08624151  0.06706468  0.02263263     1.02700
C353        C  0.01846236  0.89469075  0.97801474     1.01600
C354        C  0.84051559  0.78336533  0.02051082     1.00400
C355        C  0.92509230  0.83821397  0.06426095     1.00500
C356        C  0.10192320  0.94190826  0.02265266     1.03100
H357        H  0.92210456  0.82661960  0.03239859     0.30500
O358        O  0.93361881  0.85514581  0.02897411    -1.04800
H359        H  0.05962385  0.98379889  0.03401485     0.32500
O360        O  0.03142020  0.96691855  0.03020519    -1.07400
O361        O  0.70694540  0.34332824  0.39452447    -0.79900
O362        O  0.63037106  0.15557212  0.34281978    -0.81500
O363        O  0.63143022  0.19306117  0.39255783    -0.78500
O364        O  0.74428337  0.25754457  0.36614116    -0.76900
O365        O  0.76392597  0.30285935  0.34697795    -0.78700
O366        O  0.56428902  0.18198781  0.39155353    -0.79600
O367        O  0.66546480  0.17484692  0.36445920    -0.80900
O368        O  0.71147872  0.28351599  0.39465539    -0.81200
Eu369      Eu  0.67318112  0.24148680  0.37305162     2.39200
O370        O  0.67569601  0.24486359  0.34764997    -0.88700
O371        O  0.63191035  0.26913931  0.38145769    -0.92300
C372        C  0.71976515  0.31946199  0.39997126     1.02400
C373        C  0.65023102  0.15049121  0.35335301     1.02200
C374        C  0.59287488  0.17527451  0.39694381     1.02100
C375        C  0.77052310  0.28058555  0.35625957     1.00000
H376        H  0.59244727  0.17267202  0.36619178     0.29700
O377        O  0.60460203  0.20180341  0.36339003    -1.01100
H378        H  0.73201733  0.32781607  0.36934349     0.29800
O379        O  0.70361999  0.31208032  0.36555348    -1.03700
O380        O  0.56485926  0.20367936  0.31728844    -0.80900
O381        O  0.64254741  0.39331709  0.36724462    -0.80400
O382        O  0.51174436  0.15652394  0.36386959    -0.78900
O383        O  0.71357419  0.27948811  0.31887569    -0.82200
O384        O  0.75851236  0.38642262  0.34791325    -0.80100
O385        O  0.56042589  0.26459104  0.39456037    -0.78700
O386        O  0.52339346  0.28521042  0.34739696    -0.80200
O387        O  0.63633076  0.34867694  0.31943727    -0.82100
O388        O  0.50285435  0.23833664  0.36613659    -0.78900
O389        O  0.70158613  0.35475289  0.31939426    -0.81600
O390        O  0.53802877  0.14398568  0.34328622    -0.77300
O391        O  0.61975740  0.33005190  0.39611961    -0.77300
O392        O  0.73338770  0.39998899  0.36858420    -0.77000
O393        O  0.65234668  0.21589469  0.31678281    -0.80500
O394        O  0.55376261  0.25937730  0.31878598    -0.79900
O395        O  0.60610608  0.37188806  0.34590152    -0.78200
Eu396      Eu  0.60729226  0.20599807  0.33796179     2.39800
Eu397      Eu  0.66246261  0.34013520  0.37419056     2.39600
Eu398      Eu  0.56275888  0.22842025  0.37237966     2.38400
Eu399      Eu  0.70595277  0.31511006  0.34014621     2.39900
Eu400      Eu  0.59492098  0.30272391  0.33964986     2.39800
O401        O  0.66431960  0.34253451  0.34880740    -0.92600
O402        O  0.56490425  0.23206393  0.34693066    -0.91500
C403        C  0.54875407  0.22552572  0.31269419     1.02500
C404        C  0.62330630  0.39827822  0.35634839     1.01300
C405        C  0.50963132  0.13296632  0.35316998     1.00600
C406        C  0.68915961  0.24446445  0.31228408     1.02700
C407        C  0.76181468  0.40985617  0.35875744     1.01600
C408        C  0.58424968  0.30005985  0.40108298     1.00400
C409        C  0.49665264  0.26148955  0.35711411     1.00500
C410        C  0.67339013  0.36203643  0.31406338     1.03100
H411        H  0.57679185  0.31137694  0.36887199     0.30500
O412        O  0.59312836  0.29965890  0.36511839    -1.04800
H413        H  0.63739881  0.27746554  0.32043612     0.32500
O414        O  0.63688411  0.27624920  0.33082960    -1.07400
O415        O  0.43120547  0.71654896  0.68154560    -0.79900
O416        O  0.23006174  0.59863082  0.72687873    -0.81500
O417        O  0.31173883  0.72371805  0.69830232    -0.78500
O418        O  0.37315440  0.67725301  0.72803646    -0.76900
O419        O  0.37810150  0.61774447  0.72949106    -0.78700
O420        O  0.27423310  0.69940358  0.67723299    -0.79600
O421        O  0.28966984  0.66389898  0.72783468    -0.80900
O422        O  0.40337839  0.73307863  0.70080909    -0.81200
Eu423      Eu  0.33268393  0.67270646  0.70618473     2.39200
O424        O  0.30406133  0.60309349  0.71414163    -0.88700
O425        O  0.33392606  0.67191651  0.68075785    -0.92300
C426        C  0.43359043  0.74133819  0.69188492     1.02400
C427        C  0.25427804  0.63449457  0.73303459     1.02200
C428        C  0.29176398  0.72713019  0.68737262     1.02100
C429        C  0.38424616  0.65329423  0.73452552     1.00000
H430        H  0.24582752  0.64246325  0.70051780     0.29700
O431        O  0.26296484  0.63104086  0.69727113    -1.01100
H432        H  0.40284964  0.66135002  0.70247249     0.29800
O433        O  0.37477299  0.64472254  0.69853212    -1.03700
O434        O  0.18308315  0.48946249  0.69793261    -0.80900
O435        O  0.38286413  0.60594864  0.65238501    -0.80400
O436        O  0.18958026  0.60563807  0.67713322    -0.78900
O437        O  0.30466027  0.53043014  0.72754324    -0.82200
O438        O  0.42095118  0.59901614  0.70126864    -0.80100
O439        O  0.30391488  0.67206195  0.65116725    -0.78700
O440        O  0.23432741  0.52605997  0.65179361    -0.80200
O441        O  0.30295660  0.48331795  0.67951578    -0.82100
O442        O  0.22702642  0.58415575  0.65071387    -0.78900
O443        O  0.33950641  0.50693486  0.70077039    -0.81600
O444        O  0.17391870  0.56790435  0.69809991    -0.77300
O445        O  0.37203311  0.68591964  0.65232460    -0.77300
O446        O  0.43678739  0.63616363  0.68009120    -0.77000
O447        O  0.23907584  0.52354044  0.72695603    -0.80500
O448        O  0.21083771  0.47191141  0.67889461    -0.79900
O449        O  0.32347879  0.54039047  0.65155628    -0.78200
Eu450      Eu  0.23486154  0.56129391  0.70561570     2.39800
Eu451      Eu  0.37709587  0.64528846  0.67302193     2.39600
Eu452      Eu  0.26441738  0.62931417  0.67178300     2.38400
Eu453      Eu  0.34639651  0.57528317  0.70719978     2.39900
Eu454      Eu  0.27956384  0.53322050  0.67260466     2.39800
O455        O  0.34855744  0.57568424  0.68171548    -0.92600
O456        O  0.23679949  0.56021130  0.68030273    -0.91500
C457        C  0.18133585  0.46384886  0.68808400     1.02500
C458        C  0.35934554  0.56932255  0.64656072     1.01300
C459        C  0.16427807  0.58441574  0.68752651     1.00600
C460        C  0.26736705  0.51708535  0.73268266     1.02700
C461        C  0.44604316  0.61958573  0.69073143     1.01600
C462        C  0.34198182  0.68946781  0.64639425     1.00400
C463        C  0.22016037  0.54825153  0.64584742     1.00500
C464        C  0.32330518  0.48000006  0.69034214     1.03100
H465        H  0.30816139  0.60266177  0.65383278     0.30500
O466        O  0.30767577  0.60273270  0.66423187    -1.04800
H467        H  0.26515108  0.50480519  0.70154908     0.32500
O468        O  0.27719410  0.53334627  0.69803965    -1.07400
O469        O  0.30200913  0.53338345  0.15305126    -0.79900
O470        O  0.42489096  0.73096330  0.20003209    -0.81500
O471        O  0.37892966  0.68190543  0.15253965    -0.78500
O472        O  0.42655627  0.61334423  0.17874623    -0.76900
O473        O  0.40386691  0.57558260  0.19973653    -0.78700
O474        O  0.32323650  0.69329608  0.15402634    -0.79600
O475        O  0.43719913  0.70525469  0.17925787    -0.80900
O476        O  0.36702395  0.59324798  0.15158669    -0.81200
Eu477      Eu  0.37535982  0.63683290  0.17291137     2.39200
O478        O  0.37764202  0.63753032  0.19836016    -0.88700
O479        O  0.30479859  0.60897703  0.16542460    -0.92300
C480        C  0.33817626  0.55677273  0.14694156     1.02400
C481        C  0.44835052  0.73340810  0.18926208     1.02200
C482        C  0.35756342  0.69891426  0.14813771     1.02100
C483        C  0.43023873  0.59211328  0.18922510     1.00000
H484        H  0.36532343  0.70712636  0.17848979     0.29700
O485        O  0.34850582  0.67860806  0.18199179    -1.01100
H486        H  0.34483906  0.55065436  0.17799753     0.29800
O487        O  0.33379080  0.56761898  0.18171732    -1.03700
O488        O  0.31370628  0.68597725  0.22848171    -0.80900
O489        O  0.18983432  0.48880395  0.18120556    -0.80400
O490        O  0.29780193  0.72274712  0.18177836    -0.78900
O491        O  0.38409244  0.60872119  0.22720106    -0.82200
O492        O  0.31594680  0.49580775  0.19955417    -0.80100
O493        O  0.23279859  0.61185087  0.15358564    -0.78700
O494        O  0.18764043  0.60384889  0.20262115    -0.80200
O495        O  0.23587822  0.53888773  0.22908964    -0.82100
O496        O  0.20948132  0.64238936  0.18176260    -0.78900
O497        O  0.29122327  0.52702041  0.22789939    -0.81600
O498        O  0.34364858  0.74058259  0.20076982    -0.77300
O499        O  0.22635431  0.54660420  0.15277981    -0.77300
O500        O  0.26965895  0.47781177  0.18063592    -0.77000
O501        O  0.39115193  0.67425697  0.22790483    -0.80500
O502        O  0.24828364  0.62657866  0.22954430    -0.79900
O503        O  0.17813335  0.51376443  0.20225891    -0.78200
Eu504      Eu  0.35151437  0.67995743  0.20738846     2.39800
Eu505      Eu  0.26342181  0.53935170  0.17390672     2.39600
Eu506      Eu  0.27798119  0.65084790  0.17431542     2.38400
Eu507      Eu  0.33628882  0.56806689  0.20716711     2.39900
Eu508      Eu  0.23986445  0.58251143  0.20839598     2.39800
O509        O  0.26603929  0.54026765  0.19936503    -0.92600
O510        O  0.28102157  0.65189233  0.19972458    -0.91500
C511        C  0.27740164  0.66248071  0.23449456     1.02500
C512        C  0.16650891  0.48610877  0.19205973     1.01300
C513        C  0.32234157  0.74872094  0.19152894     1.00600
C514        C  0.39850745  0.64571920  0.23280589     1.02700
C515        C  0.29117661  0.46982763  0.18982448     1.01600
C516        C  0.21936957  0.57530664  0.14775697     1.00400
C517        C  0.18312940  0.62466591  0.19224040     1.00500
C518        C  0.25705519  0.52207173  0.23378542     1.03100
H519        H  0.20811477  0.56972402  0.17976780     0.30500
O520        O  0.23694108  0.58136873  0.18295986    -1.04800
H521        H  0.31115212  0.61052749  0.22641970     0.32500
O522        O  0.31020389  0.61043142  0.21601774    -1.07400
O523        O  0.97354385  0.01165565  0.56045163    -0.79900
O524        O  0.85339925  0.82090126  0.51014116    -0.81500
O525        O  0.84850249  0.93132879  0.53066907    -0.78500
O526        O  0.89393605  0.86645282  0.55889278    -0.76900
O527        O  0.95108937  0.85724410  0.55910829    -0.78700
O528        O  0.87678932  0.97739380  0.51177935    -0.79600
O529        O  0.84099916  0.84288560  0.53174372    -0.80900
O530        O  0.90508879  0.95762586  0.55860946    -0.81200
Eu531      Eu  0.90074531  0.91189522  0.53823840     2.39200
O532        O  0.92668397  0.87005744  0.52870367    -0.88700
O533        O  0.94473866  0.98196129  0.53074276    -0.92300
C534        C  0.93474818  0.99125977  0.56474938     1.02400
C535        C  0.83023109  0.81629448  0.52126874     1.02200
C536        C  0.84691526  0.95538383  0.52084073     1.02100
C537        C  0.91625897  0.85191186  0.56447621     1.00000
H538        H  0.87284873  0.90354867  0.50897543     0.29700
O539        O  0.90105599  0.91431531  0.51267637    -1.01100
H540        H  0.96915828  0.93570535  0.55748371     0.29800
O541        O  0.96945655  0.93649135  0.54707843    -1.03700
O542        O  0.96908580  0.86765998  0.48345627    -0.80900
O543        O  0.08828217  0.05740926  0.53368444    -0.80400
O544        O  0.90399971  0.95069909  0.48324585    -0.78900
O545        O  0.96697457  0.81996179  0.52984472    -0.82200
O546        O  0.04343708  0.93100649  0.55820361    -0.80100
O547        O  0.96892732  0.05720710  0.51319699    -0.78700
O548        O  0.04816450  0.01600580  0.48525956    -0.80200
O549        O  0.09027935  0.94534719  0.51205325    -0.82100
O550        O  0.99342254  0.02879465  0.48587778    -0.78900
O551        O  0.06169003  0.89820147  0.53063593    -0.81600
O552        O  0.89443997  0.88439717  0.48133114    -0.77300
O553        O  0.00778392  0.06900248  0.53384293    -0.77300
O554        O  0.05088561  0.99652093  0.56013792    -0.77000
O555        O  0.92984639  0.80842978  0.50876074    -0.80500
O556        O  0.03537562  0.92605551  0.48377955    -0.79900
O557        O  0.10222934  0.03476218  0.51252048    -0.78200
Eu558      Eu  0.92710809  0.87248055  0.50319344     2.39800
Eu559      Eu  0.01347583  0.00679815  0.53978589     2.39600
Eu560      Eu  0.94527508  0.98481668  0.50529140     2.38400
Eu561      Eu  0.99501281  0.89383694  0.53779152     2.39900
Eu562      Eu  0.04001041  0.96790232  0.50506737     2.39800
O563        O  0.03880133  0.96426685  0.53040965    -0.92600
O564        O  0.97142759  0.94296661  0.49601826    -0.91500
C565        C  0.00675094  0.89059885  0.47841467     1.02500
C566        C  0.11282274  0.06114571  0.52308641     1.01300
C567        C  0.89009978  0.91517039  0.47658747     1.00600
C568        C  0.94518404  0.79662533  0.51907655     1.02700
C569        C  0.05802336  0.96726408  0.56443360     1.01600
C570        C  0.99090918  0.08042201  0.52391169     1.00400
C571        C  0.02842933  0.03442265  0.48060628     1.00500
C572        C  0.09123447  0.91989250  0.52143516     1.03100
H573        H  0.03194401  0.03854639  0.51137987     0.30500
O574        O  0.01392530  0.00968938  0.51437631    -1.04800
H575        H  0.00683426  0.88037648  0.50865076     0.32500
O576        O  0.99586159  0.89743816  0.51236488    -1.07400
C577        C  0.04572513  0.04830200  0.91320294    -0.17600
C578        C  0.04578185  0.03232748  0.92691184    -0.19800
C579        C  0.03488758  0.04725060  0.93914588     0.20900
C580        C  0.02689643  0.08076702  0.93766990    -0.02700
C581        C  0.02790119  0.09764998  0.92384853    -0.05800
C582        C  0.03541145  0.07994155  0.91150774     0.21100
C583        C  0.01808798  0.12991003  0.92228438     0.19300
C584        C  0.00989057  0.14668428  0.93463302    -0.17300
C585        C  0.00817150  0.12947865  0.94827485    -0.19500
C586        C  0.01514536  0.09552323  0.94984539     0.20800
C587        C  0.00847866  0.07467559  0.96317372    -0.32500
C588        C  0.01464190  0.04007887  0.96456396     0.01500
C589        C  0.02957161  0.02774146  0.95265239    -0.23800
C590        C  0.02888910  0.09157126  0.89771746    -0.28400
C591        C  0.01566219  0.12114830  0.89612864     0.07200
C592        C  0.01296315  0.14213268  0.90839217    -0.27100
H593        H  0.05209641  0.03470437  0.90386661     0.11900
H594        H  0.05241181  0.00689790  0.92785466     0.13000
H595        H  0.00265890  0.17169277  0.93366205     0.12100
H596        H  0.99982159  0.14171623  0.95752621     0.11300
H597        H  0.99762846  0.08470871  0.97238473     0.16700
H598        H  0.03450322  0.00119621  0.95369507     0.12600
H599        H  0.03075497  0.07522020  0.88827076     0.15500
H600        H  0.00221680  0.16450598  0.90719640     0.15300
C601        C  0.86741999  0.23591647  0.88773237    -0.17600
C602        C  0.89597883  0.22145870  0.88910537    -0.19800
C603        C  0.90702356  0.20592439  0.87706861     0.20900
C604        C  0.88977490  0.20586803  0.86344466    -0.02700
C605        C  0.86155714  0.22127229  0.86200505    -0.05800
C606        C  0.84967654  0.23558358  0.87425753     0.21100
C607        C  0.84419262  0.22104256  0.84838107     0.19300
C608        C  0.85514862  0.20541570  0.83636168    -0.17300
C609        C  0.88221249  0.18923839  0.83785157    -0.19500
C610        C  0.89952063  0.18905583  0.85134498     0.20800
C611        C  0.92514304  0.17103578  0.85304970    -0.32500
C612        C  0.94216499  0.17069737  0.86660671     0.01500
C613        C  0.93362181  0.18893247  0.87850795    -0.23800
C614        C  0.81925898  0.24793342  0.87287879    -0.28400
C615        C  0.80132486  0.24719417  0.85933571     0.07200
C616        C  0.81494987  0.23487055  0.84709124    -0.27100
H617        H  0.85882158  0.24690767  0.89725898     0.11900
H618        H  0.90877380  0.22162522  0.89965794     0.13000
H619        H  0.84199790  0.20481303  0.82583655     0.12100
H620        H  0.88932363  0.17650510  0.82844459     0.11300
H621        H  0.93083940  0.15609226  0.84395011     0.16700
H622        H  0.94562657  0.18750396  0.88905571     0.12600
H623        H  0.80894766  0.25743467  0.88237154     0.15500
H624        H  0.80088714  0.23367356  0.83668300     0.15300
C625        C  0.24182503  0.39654671  0.76366390    -0.17600
C626        C  0.24145394  0.38069117  0.77745485    -0.19800
C627        C  0.24656209  0.40493389  0.78981943     0.20900
C628        C  0.24961629  0.44458666  0.78826111    -0.02700
C629        C  0.24976146  0.46050035  0.77435493    -0.05800
C630        C  0.24708307  0.43687182  0.76197038     0.21100
C631        C  0.25483506  0.50101510  0.77284824     0.19300
C632        C  0.25832485  0.52464386  0.78518743    -0.17300
C633        C  0.25853894  0.50905675  0.79891666    -0.19500
C634        C  0.25513032  0.46951611  0.80054456     0.20800
C635        C  0.26027739  0.45593813  0.81412599    -0.32500
C636        C  0.26115748  0.41831507  0.81562180     0.01500
C637        C  0.25190210  0.39178319  0.80355647    -0.23800
C638        C  0.25149699  0.45478190  0.74818584    -0.28400
C639        C  0.25762277  0.49555077  0.74673814     0.07200
C640        C  0.25814684  0.51796892  0.75904777    -0.27100
H641        H  0.23927961  0.37775967  0.75430243     0.11900
H642        H  0.23880069  0.35010150  0.77841659     0.13000
H643        H  0.26218946  0.55575902  0.78420556     0.12100
H644        H  0.26275014  0.52855379  0.80824840     0.11300
H645        H  0.26710699  0.47636134  0.82340696     0.16700
H646        H  0.25281557  0.36292411  0.80460676     0.12600
H647        H  0.25119557  0.43758968  0.73864387     0.15500
H648        H  0.26322159  0.54954616  0.75787737     0.15300
C649        C  0.39579564  0.33198351  0.82016217    -0.17600
C650        C  0.42752377  0.32183588  0.82162918    -0.19800
C651        C  0.43959592  0.31538833  0.83532801     0.20900
C652        C  0.41872760  0.31817777  0.84766215    -0.02700
C653        C  0.38704986  0.32909784  0.84619586    -0.05800
C654        C  0.37580300  0.33631524  0.83237287     0.21100
C655        C  0.36802247  0.33460765  0.85857275     0.19300
C656        C  0.37928691  0.32696007  0.87224252    -0.17300
C657        C  0.40991330  0.31514932  0.87366913    -0.19500
C658        C  0.43043442  0.31140485  0.86147281     0.20800
C659        C  0.46320796  0.30222664  0.86285306    -0.32500
C660        C  0.48532555  0.30098100  0.85061893     0.01500
C661        C  0.47280993  0.30717412  0.83689257    -0.23800
C662        C  0.34654007  0.35000751  0.83103522    -0.28400
C663        C  0.32956853  0.35822974  0.84333353     0.07200
C664        C  0.33983854  0.34976185  0.85707454    -0.27100
H665        H  0.38764152  0.33750449  0.80947501     0.11900
H666        H  0.44305912  0.31960408  0.81203516     0.13000
H667        H  0.36491312  0.33081113  0.88186877     0.12100
H668        H  0.41832595  0.30999247  0.88436408     0.11300
H669        H  0.47252970  0.29762572  0.87347956     0.16700
H670        H  0.48912517  0.30578336  0.82736945     0.12600
H671        H  0.33958311  0.35766018  0.82047158     0.15500
H672        H  0.32749424  0.35695037  0.86657528     0.15300
C673        C  0.18750350  0.23998060  0.85930586    -0.17600
C674        C  0.14978846  0.21129898  0.86614821    -0.19800
C675        C  0.11421830  0.21595565  0.86523219     0.20900
C676        C  0.11672154  0.24979273  0.85734020    -0.02700
C677        C  0.15491305  0.27884547  0.85042883    -0.05800
C678        C  0.19044603  0.27395445  0.85143234     0.21100
C679        C  0.15765156  0.31302189  0.84268317     0.19300
C680        C  0.12189115  0.31734329  0.84162185    -0.17300
C681        C  0.08400798  0.28839693  0.84835013    -0.19500
C682        C  0.08113471  0.25463446  0.85634533     0.20800
C683        C  0.04319424  0.22547154  0.86318507    -0.32500
C684        C  0.03963653  0.19058116  0.87083939     0.01500
C685        C  0.07604106  0.18677156  0.87181669    -0.23800
C686        C  0.22864829  0.30364217  0.84491946    -0.28400
C687        C  0.23297812  0.33972779  0.83788720     0.07200
C688        C  0.19639420  0.34316059  0.83659238    -0.27100
H689        H  0.21450462  0.23575151  0.86026961     0.11900
H690        H  0.14844092  0.18539942  0.87215600     0.13000
H691        H  0.12330985  0.34337247  0.83568116     0.12100
H692        H  0.05698518  0.29257800  0.84736142     0.11300
H693        H  0.01654077  0.23001353  0.86225269     0.16700
H694        H  0.07464342  0.16003487  0.87715178     0.12600
H695        H  0.25513706  0.29888090  0.84585680     0.15500
H696        H  0.19807750  0.37040213  0.83156149     0.15300
C697        C  0.18391255  0.53128939  0.08290722    -0.17600
C698        C  0.20024888  0.53194841  0.09662504    -0.19800
C699        C  0.18749808  0.54585033  0.10865751     0.20900
C700        C  0.15680119  0.55778200  0.10692395    -0.02700
C701        C  0.13960231  0.55623249  0.09310135    -0.05800
C702        C  0.15408248  0.54397664  0.08098332     0.21100
C703        C  0.10963987  0.56909741  0.09129600     0.19300
C704        C  0.09641723  0.58239267  0.10337700    -0.17300
C705        C  0.11386637  0.58447751  0.11701889    -0.19500
C706        C  0.14461234  0.57295469  0.11887061     0.20800
C707        C  0.16442332  0.57768104  0.13231304    -0.32500
C708        C  0.19550026  0.56643318  0.13404633     0.01500
C709        C  0.20604110  0.54950741  0.12226255    -0.23800
C710        C  0.14054645  0.54720541  0.06708700    -0.28400
C711        C  0.11219041  0.56181687  0.06516407     0.07200
C712        C  0.09554519  0.57104777  0.07734716    -0.27100
H713        H  0.19531380  0.52169852  0.07374130     0.11900
H714        H  0.22377643  0.52268485  0.09775461     0.13000
H715        H  0.07348477  0.59241760  0.10220130     0.12100
H716        H  0.10390766  0.59592201  0.12607725     0.11300
H717        H  0.15611333  0.59060089  0.14139206     0.16700
H718        H  0.23028259  0.54122095  0.12352163     0.12600
H719        H  0.15414958  0.54105220  0.05769904     0.15500
H720        H  0.07466611  0.58352905  0.07586130     0.15300
C721        C  0.98532797  0.69340460  0.05009700    -0.17600
C722        C  0.99842852  0.66404628  0.05201612    -0.19800
C723        C  0.01697821  0.65413442  0.04061927     0.20900
C724        C  0.02114359  0.67302801  0.02700207    -0.02700
C725        C  0.00748911  0.70242316  0.02501730    -0.05800
C726        C  0.99029826  0.71321314  0.03671736     0.21100
C727        C  0.01262335  0.72226206  0.01151645     0.19300
C728        C  0.03082459  0.71197041  0.00008881    -0.17300
C729        C  0.04498399  0.68339168  0.00212332    -0.19500
C730        C  0.04081197  0.66415300  0.01558266     0.20800
C731        C  0.05799247  0.63810085  0.01806775    -0.32500
C732        C  0.05524177  0.62040713  0.03176236     0.01500
C733        C  0.03359755  0.62759810  0.04284588    -0.23800
C734        C  0.97986107  0.74475092  0.03500607    -0.28400
C735        C  0.98573616  0.76540257  0.02170705     0.07200
C736        C  0.00103265  0.75318530  0.00987342    -0.27100
H737        H  0.97204227  0.70123929  0.05917424     0.11900
H738        H  0.99505265  0.64990359  0.06253976     0.13000
H739        H  0.03509042  0.72684012  0.98965763     0.12100
H740        H  0.05995347  0.67694582  0.99322609     0.11300
H741        H  0.07565051  0.63353347  0.00962317     0.16700
H742        H  0.03263555  0.61514830  0.05352837     0.12600
H743        H  0.96799134  0.75401273  0.04414467     0.15500
H744        H  0.00605950  0.76933777  0.99965466     0.15300
C745        C  0.93432474  0.19076059  0.98800717    -0.17600
C746        C  0.94492408  0.15939228  0.98953281    -0.19800
C747        C  0.94396554  0.14224872  0.00315096     0.20900
C748        C  0.93407712  0.15819850  0.01543747    -0.02700
C749        C  0.92279885  0.18946603  0.01387159    -0.05800
C750        C  0.92218055  0.20522070  0.00004969     0.21100
C751        C  0.90946446  0.20286608  0.02600243     0.19300
C752        C  0.91024363  0.18698548  0.03968549    -0.17300
C753        C  0.92231627  0.15672194  0.04127971    -0.19500
C754        C  0.93326565  0.14134394  0.02919668     0.20800
C755        C  0.94147910  0.10810548  0.03055005    -0.32500
C756        C  0.94890905  0.09046171  0.01826360     0.01500
C757        C  0.95094726  0.10827480  0.00463070    -0.23800
C758        C  0.90630081  0.23256097  0.99837733    -0.28400
C759        C  0.88952033  0.24294967  0.01023386     0.07200
C760        C  0.89260549  0.22934054  0.02408153    -0.27100
H761        H  0.93406586  0.20254728  0.97732347     0.11900
H762        H  0.95278864  0.14774875  0.98000258     0.13000
H763        H  0.90032371  0.19706759  0.04911687     0.12100
H764        H  0.92164747  0.14424865  0.05191926     0.11300
H765        H  0.93970820  0.09437887  0.04105337     0.16700
H766        H  0.95712298  0.09506051  0.99513179     0.12600
H767        H  0.90293523  0.24226623  0.98765140     0.15500
H768        H  0.87888189  0.23668330  0.03315658     0.15300
C769        C  0.72261643  0.31902539  0.95214689    -0.17600
C770        C  0.73821336  0.31714222  0.96574848    -0.19800
C771        C  0.77550157  0.31565895  0.96703513     0.20900
C772        C  0.79789796  0.31716775  0.95448765    -0.02700
C773        C  0.78175418  0.31835105  0.94072218    -0.05800
C774        C  0.74380303  0.31907717  0.93955907     0.21100
C775        C  0.80260586  0.31697282  0.92813769     0.19300
C776        C  0.84019300  0.31605439  0.92943810    -0.17300
C777        C  0.85642679  0.31538721  0.94306025    -0.19500
C778        C  0.83519382  0.31522354  0.95565663     0.20800
C779        C  0.84893154  0.31019711  0.96930776    -0.32500
C780        C  0.82498492  0.30551788  0.98170926     0.01500
C781        C  0.78918507  0.30980652  0.98054537    -0.23800
C782        C  0.72694066  0.31830002  0.92584748    -0.28400
C783        C  0.74686516  0.31557529  0.91331235     0.07200
C784        C  0.78473399  0.31507324  0.91451645    -0.27100
H785        H  0.69339323  0.31941854  0.95146564     0.11900
H786        H  0.72058135  0.31592674  0.97526541     0.13000
H787        H  0.85666751  0.31507801  0.91990269     0.12100
H788        H  0.88498382  0.31375045  0.94373208     0.11300
H789        H  0.87580231  0.30566599  0.97010305     0.16700
H790        H  0.77019641  0.30529697  0.99004434     0.12600
H791        H  0.69724421  0.31773413  0.92492626     0.15500
H792        H  0.79975703  0.31236277  0.90485071     0.15300
C793        C  0.93052323  0.47113278  0.02581802    -0.17600
C794        C  0.90235567  0.43301901  0.01899689    -0.19800
C795        C  0.91417357  0.40299103  0.01599866     0.20900
C796        C  0.95455135  0.41121448  0.02013256    -0.02700
C797        C  0.98284645  0.44953611  0.02719563    -0.05800
C798        C  0.97096616  0.47986299  0.02990578     0.21100
C799        C  0.02321487  0.45773816  0.03132909     0.19300
C800        C  0.03483743  0.42747391  0.02850678    -0.17300
C801        C  0.00694203  0.38968866  0.02146106    -0.19500
C802        C  0.96677643  0.38130101  0.01714445     0.20800
C803        C  0.93858508  0.34341398  0.01002972    -0.32500
C804        C  0.89766550  0.33424341  0.00613323     0.01500
C805        C  0.88610646  0.36472733  0.00911513    -0.23800
C806        C  0.00000201  0.51873211  0.03631015    -0.28400
C807        C  0.04101142  0.52796571  0.04003957     0.07200
C808        C  0.05176349  0.49655394  0.03777714    -0.27100
H809        H  0.92073626  0.49393049  0.02781498     0.11900
H810        H  0.87137069  0.42716830  0.01595909     0.13000
H811        H  0.06574790  0.43323270  0.03160820     0.12100
H812        H  0.01685411  0.36703581  0.01935643     0.11300
H813        H  0.94857165  0.32103581  0.00768509     0.16700
H814        H  0.85458960  0.35810661  0.00653213     0.12600
H815        H  0.99085384  0.54202294  0.03808868     0.15500
H816        H  0.08330037  0.50315242  0.04031804     0.15300
C817        C  0.01555853  0.60019445  0.16750058    -0.17600
C818        C  0.04705820  0.59006905  0.16996706    -0.19800
C819        C  0.07843571  0.61183764  0.18043900     0.20900
C820        C  0.07662932  0.64245342  0.18907974    -0.02700
C821        C  0.04479361  0.65265582  0.18658934    -0.05800
C822        C  0.01478774  0.63229325  0.17546212     0.21100
C823        C  0.04469025  0.68511736  0.19462861     0.19300
C824        C  0.07481911  0.70551336  0.20556552    -0.17300
C825        C  0.10614076  0.69529886  0.20807650    -0.19500
C826        C  0.10798701  0.66455600  0.19967142     0.20800
C827        C  0.14166116  0.65693653  0.20120278    -0.32500
C828        C  0.14477595  0.62814109  0.19208849     0.01500
C829        C  0.11263715  0.60502204  0.18196094    -0.23800
C830        C  0.98678508  0.64657987  0.17181472    -0.28400
C831        C  0.98913333  0.68138586  0.17903181     0.07200
C832        C  0.01659217  0.69883259  0.19090365    -0.27100
H833        H  0.99272859  0.58396803  0.15898676     0.11900
H834        H  0.04771223  0.56616778  0.16333093     0.13000
H835        H  0.07504972  0.73043645  0.21186276     0.12100
H836        H  0.12975127  0.71243560  0.21629163     0.11300
H837        H  0.16650224  0.67481654  0.20898529     0.16700
H838        H  0.11505271  0.58272801  0.17496155     0.12600
H839        H  0.96615936  0.63337133  0.16253595     0.15500
H840        H  0.01857185  0.72570746  0.19646658     0.15300
C841        C  0.89035055  0.80600822  0.12977987    -0.17600
C842        C  0.89064388  0.82326445  0.11627018    -0.19800
C843        C  0.89945237  0.80784380  0.10369862     0.20900
C844        C  0.90649612  0.77359745  0.10472997    -0.02700
C845        C  0.90521015  0.75549990  0.11835925    -0.05800
C846        C  0.89822809  0.77254119  0.13097844     0.21100
C847        C  0.91357313  0.72213923  0.11943381     0.19300
C848        C  0.92183989  0.70636059  0.10684559    -0.17300
C849        C  0.92367985  0.72461116  0.09340442    -0.19500
C850        C  0.91686185  0.75875554  0.09225179     0.20800
C851        C  0.92178738  0.77930679  0.07896617    -0.32500
C852        C  0.91535300  0.81380613  0.07789048     0.01500
C853        C  0.90306011  0.82714088  0.09023129    -0.23800
C854        C  0.90254908  0.75807511  0.14458489    -0.28400
C855        C  0.91382647  0.72684355  0.14575829     0.07200
C856        C  0.91700439  0.70751041  0.13311356    -0.27100
H857        H  0.88495683  0.81954863  0.13933957     0.11900
H858        H  0.88522129  0.84955441  0.11570818     0.13000
H859        H  0.92840117  0.68083104  0.10745452     0.12100
H860        H  0.93141193  0.71260960  0.08394009     0.11300
H861        H  0.93126031  0.76892448  0.06948476     0.16700
H862        H  0.89856509  0.85401348  0.08948612     0.12600
H863        H  0.90127103  0.77395644  0.15425837     0.15500
H864        H  0.92708928  0.68453057  0.13391645     0.15300
C865        C  0.69791274  0.36345121  0.26204217    -0.17600
C866        C  0.69625974  0.37765114  0.24819593    -0.19800
C867        C  0.69032886  0.41215181  0.24631093     0.20900
C868        C  0.68756947  0.43355215  0.25852521    -0.02700
C869        C  0.68854829  0.41877889  0.27253086    -0.05800
C870        C  0.69326518  0.38325612  0.27425556     0.21100
C871        C  0.68246300  0.43806997  0.28474087     0.19300
C872        C  0.67795694  0.47345046  0.28286371    -0.17300
C873        C  0.67738111  0.48831793  0.26899603    -0.19500
C874        C  0.68100532  0.46790925  0.25673912     0.20800
C875        C  0.67482958  0.47902083  0.24279405    -0.32500
C876        C  0.67439522  0.45573400  0.23066730     0.01500
C877        C  0.68388167  0.42351171  0.23248391    -0.23800
C878        C  0.69122425  0.36691911  0.28809672    -0.28400
C879        C  0.68284645  0.38452799  0.30017470     0.07200
C880        C  0.67904949  0.42042773  0.29849692    -0.27100
H881        H  0.70149067  0.33611341  0.26318238     0.11900
H882        H  0.69842920  0.36086865  0.23894211     0.13000
H883        H  0.67362571  0.48888861  0.29210561     0.12100
H884        H  0.67246566  0.51481712  0.26784522     0.11300
H885        H  0.66619747  0.50297856  0.24150164     0.16700
H886        H  0.68246961  0.40483137  0.22322355     0.12600
H887        H  0.69356110  0.33887042  0.28939310     0.15500
H888        H  0.67244479  0.43388606  0.30783234     0.15300
C889        C  0.53745636  0.58189915  0.21775818    -0.17600
C890        C  0.56524380  0.56682673  0.21958492    -0.19800
C891        C  0.57351321  0.54715687  0.20813619     0.20900
C892        C  0.55442103  0.54358489  0.19457199    -0.02700
C893        C  0.52683718  0.55952030  0.19265130    -0.05800
C894        C  0.51776003  0.57797254  0.20440481     0.21100
C895        C  0.50698777  0.55538691  0.17918896     0.19300
C896        C  0.51553223  0.53582613  0.16772534    -0.17300
C897        C  0.54215177  0.51920808  0.16972057    -0.19500
C898        C  0.56131034  0.52237776  0.18315797     0.20800
C899        C  0.58542590  0.50297434  0.18564388    -0.32500
C900        C  0.60373118  0.50581203  0.19925500     0.01500
C901        C  0.59873761  0.52906501  0.21026783    -0.23800
C902        C  0.48780837  0.59057127  0.20281672    -0.28400
C903        C  0.46689731  0.58554511  0.18961019     0.07200
C904        C  0.47756073  0.56910367  0.17767330    -0.27100
H905        H  0.53081203  0.59602278  0.22687910     0.11900
H906        H  0.57946217  0.56961181  0.23007742     0.13000
H907        H  0.50065993  0.53228895  0.15731387     0.12100
H908        H  0.54715125  0.50319151  0.16081012     0.11300
H909        H  0.58840850  0.48413623  0.17725121     0.16700
H910        H  0.61172858  0.53010241  0.22087686     0.12600
H911        H  0.47966140  0.60316079  0.21203724     0.15500
H912        H  0.46108615  0.56456684  0.16752709     0.15300
C913        C  0.84872067  0.61696921  0.20815142    -0.17600
C914        C  0.80951242  0.58994117  0.21448710    -0.19800
C915        C  0.77290436  0.56912259  0.20598555     0.20900
C916        C  0.77608937  0.57559577  0.19090991    -0.02700
C917        C  0.81578776  0.60279975  0.18448932    -0.05800
C918        C  0.85217029  0.62367011  0.19317587     0.21100
C919        C  0.81896255  0.60947363  0.16942378     0.19300
C920        C  0.78237462  0.58842568  0.16091228    -0.17300
C921        C  0.74313849  0.56142739  0.16725401    -0.19500
C922        C  0.73964866  0.55495365  0.18224331     0.20800
C923        C  0.70044695  0.52779540  0.18866492    -0.32500
C924        C  0.69671541  0.52054818  0.20370897     0.01500
C925        C  0.73334552  0.54176414  0.21227861    -0.23800
C926        C  0.89120684  0.65167426  0.18682092    -0.28400
C927        C  0.89487950  0.65948683  0.17181770     0.07200
C928        C  0.85841504  0.63763444  0.16318794    -0.27100
H929        H  0.87639223  0.63281285  0.21499447     0.11900
H930        H  0.80782684  0.58538467  0.22606216     0.13000
H931        H  0.78404529  0.59304011  0.14934064     0.12100
H932        H  0.71543892  0.54567099  0.16041892     0.11300
H933        H  0.67288232  0.51112647  0.18182711     0.16700
H934        H  0.73128169  0.53704391  0.22381117     0.12600
H935        H  0.91851813  0.66891780  0.19372093     0.15500
H936        H  0.86051851  0.64295835  0.15167599     0.15300
C937        C  0.43212930  0.82109008  0.61946280    -0.17600
C938        C  0.43585140  0.85066773  0.60918532    -0.19800
C939        C  0.40259918  0.84133506  0.59961024     0.20900
C940        C  0.36561879  0.80127921  0.60014247    -0.02700
C941        C  0.36147933  0.77178170  0.61074289    -0.05800
C942        C  0.39481486  0.78186494  0.62052703     0.21100
C943        C  0.32334466  0.73298885  0.61193460     0.19300
C944        C  0.29035945  0.72322908  0.60217982    -0.17300
C945        C  0.29469917  0.75214611  0.59154816    -0.19500
C946        C  0.33193850  0.79149058  0.59057115     0.20800
C947        C  0.33513232  0.82210325  0.58078143    -0.32500
C948        C  0.37078213  0.86286621  0.58082571     0.01500
C949        C  0.40468759  0.87208239  0.59008664    -0.23800
C950        C  0.38953533  0.75343722  0.63160137    -0.28400
C951        C  0.35081711  0.71576451  0.63330022     0.07200
C952        C  0.31824188  0.70538905  0.62320739    -0.27100
H953        H  0.45802114  0.82940685  0.62686926     0.11900
H954        H  0.46449852  0.88119726  0.60890577     0.13000
H955        H  0.26089485  0.69350763  0.60293429     0.12100
H956        H  0.26847263  0.74417615  0.58433379     0.11300
H957        H  0.30838432  0.81546774  0.57399675     0.16700
H958        H  0.43160020  0.90385945  0.59043526     0.12600
H959        H  0.41455094  0.76179493  0.63940731     0.15500
H960        H  0.28835662  0.67622986  0.62438586     0.15300
C961        C  0.19931636  0.84114648  0.53833299    -0.17600
C962        C  0.16302052  0.84070877  0.53345129    -0.19800
C963        C  0.16489500  0.87824896  0.52922313     0.20900
C964        C  0.20423954  0.91616738  0.52907469    -0.02700
C965        C  0.24076560  0.91672760  0.53420592    -0.05800
C966        C  0.23802343  0.87918747  0.53919159     0.21100
C967        C  0.27928487  0.95534524  0.53531792     0.19300
C968        C  0.28166053  0.99244564  0.53029219    -0.17300
C969        C  0.24571450  0.99174825  0.52492696    -0.19500
C970        C  0.20663920  0.95404617  0.52469368     0.20800
C971        C  0.16959918  0.95408028  0.52103049    -0.32500
C972        C  0.12999066  0.91715071  0.52229414     0.01500
C973        C  0.12792908  0.87905460  0.52597015    -0.23800
C974        C  0.27310364  0.88091693  0.54595319    -0.28400
C975        C  0.31034212  0.91980754  0.54816860     0.07200
C976        C  0.31376291  0.95665815  0.54239780    -0.27100
H977        H  0.19670657  0.81199885  0.54203572     0.11900
H978        H  0.13319618  0.81123123  0.53347006     0.13000
H979        H  0.31102376  0.02228425  0.53096068     0.12100
H980        H  0.24812341  0.02106211  0.52153796     0.11300
H981        H  0.17132533  0.98354040  0.51826053     0.16700
H982        H  0.09745763  0.85042548  0.52681172     0.12600
H983        H  0.27019689  0.85264707  0.55071105     0.15500
H984        H  0.34219757  0.98668467  0.54435292     0.15300
C985        C  0.50915561  0.03006143  0.41598500    -0.17600
C986        C  0.50311884  0.99982139  0.42635391    -0.19800
C987        C  0.52774687  0.01151146  0.43896372     0.20900
C988        C  0.55824655  0.05426507  0.44128346    -0.02700
C989        C  0.56495447  0.08469910  0.43066582    -0.05800
C990        C  0.54029063  0.07252930  0.41794383     0.21100
C991        C  0.59738537  0.12697621  0.43254308     0.19300
C992        C  0.62175917  0.13872770  0.44520605    -0.17300
C993        C  0.61476179  0.10872528  0.45578941    -0.19500
C994        C  0.58355365  0.06628109  0.45385068     0.20800
C995        C  0.57935180  0.03526321  0.46370190    -0.32500
C996        C  0.55140184  0.99232689  0.46083022     0.01500
C997        C  0.52449629  0.98088509  0.44876809    -0.23800
C998        C  0.54805175  0.10279785  0.40724791    -0.28400
C999        C  0.58113044  0.14469457  0.40890536     0.07200
C1000       C  0.60560336  0.15650866  0.42157354    -0.27100
H1001       H  0.49003582  0.02006308  0.40628161     0.11900
H1002       H  0.47966812  0.96710461  0.42437896     0.13000
H1003       H  0.64670790  0.17107515  0.44683436     0.12100
H1004       H  0.63462380  0.11853486  0.46531451     0.11300
H1005       H  0.60099543  0.04410863  0.47273920     0.16700
H1006       H  0.50360685  0.94775713  0.44637302     0.12600
H1007       H  0.52965779  0.09344242  0.39737034     0.15500
H1008       H  0.63130282  0.18872849  0.42281244     0.15300
C1009       C  0.77027540  0.02606958  0.50458943    -0.17600
C1010       C  0.73304712  0.02353635  0.49967873    -0.19800
C1011       C  0.69475505  0.98501574  0.49993749     0.20900
C1012       C  0.69370724  0.94889811  0.50558868    -0.02700
C1013       C  0.73119578  0.95165272  0.51081338    -0.05800
C1014       C  0.76979880  0.99023739  0.51000886     0.21100
C1015       C  0.73037234  0.91538849  0.51620690     0.19300
C1016       C  0.69208715  0.87682539  0.51641324    -0.17300
C1017       C  0.65519565  0.87387396  0.51088815    -0.19500
C1018       C  0.65572218  0.90959665  0.50530695     0.20800
C1019       C  0.61970814  0.90630715  0.49867103    -0.32500
C1020       C  0.62103349  0.94197990  0.49264051     0.01500
C1021       C  0.65815778  0.98144533  0.49379880    -0.23800
C1022       C  0.80746097  0.99187231  0.51402380    -0.28400
C1023       C  0.80699602  0.95561558  0.51907365     0.07200
C1024       C  0.76815590  0.91784831  0.52060522    -0.27100
H1025       H  0.79960200  0.05592978  0.50390810     0.11900
H1026       H  0.73443287  0.05149043  0.49529044     0.13000
H1027       H  0.69092342  0.84863352  0.52045495     0.12100
H1028       H  0.62637997  0.84346182  0.51075594     0.11300
H1029       H  0.59150906  0.87567720  0.49736954     0.16700
H1030       H  0.65958961  0.00863422  0.48867743     0.12600
H1031       H  0.83731125  0.02103018  0.51281599     0.15500
H1032       H  0.76766861  0.88963137  0.52427482     0.15300
C1033       C  0.53337003  0.95123283  0.53319064    -0.17600
C1034       C  0.50369794  0.94079530  0.54423543    -0.19800
C1035       C  0.46114450  0.92621656  0.54097704     0.20900
C1036       C  0.44842684  0.92213427  0.52643871    -0.02700
C1037       C  0.47848117  0.93288779  0.51526815    -0.05800
C1038       C  0.52115613  0.94742693  0.51864651     0.21100
C1039       C  0.46575355  0.92893302  0.50073414     0.19300
C1040       C  0.42320770  0.91438924  0.49747924    -0.17300
C1041       C  0.39353905  0.90386195  0.50851634    -0.19500
C1042       C  0.40576652  0.90760512  0.52304642     0.20800
C1043       C  0.37626556  0.89791614  0.53419992    -0.32500
C1044       C  0.38881170  0.90335091  0.54879765     0.01500
C1045       C  0.43141522  0.91679180  0.55199894    -0.23800
C1046       C  0.55069171  0.95728944  0.50745804    -0.28400
C1047       C  0.53819811  0.95244523  0.49284237     0.07200
C1048       C  0.49550219  0.93871799  0.48969372    -0.27100
H1049       H  0.56592652  0.96225696  0.53603647     0.11900
H1050       H  0.51409510  0.94424922  0.55535217     0.13000
H1051       H  0.41282103  0.91108105  0.48636643     0.12100
H1052       H  0.36099192  0.89291278  0.50567536     0.11300
H1053       H  0.34374936  0.88695160  0.53144496     0.16700
H1054       H  0.44205027  0.92200955  0.56309881     0.12600
H1055       H  0.58323641  0.96826927  0.51019003     0.15500
H1056       H  0.48487404  0.93387210  0.47859053     0.15300
C1057       C  0.24570638  0.81972157  0.70884284    -0.17600
C1058       C  0.23320279  0.84963707  0.70717771    -0.19800
C1059       C  0.23937026  0.87084178  0.69402530     0.20900
C1060       C  0.25994936  0.86306178  0.68262262    -0.02700
C1061       C  0.27166181  0.83210203  0.68418819    -0.05800
C1062       C  0.26398043  0.80996749  0.69731435     0.21100
C1063       C  0.28905566  0.82182602  0.67239754     0.19300
C1064       C  0.29719791  0.84456630  0.65948245    -0.17300
C1065       C  0.28623106  0.87570280  0.65800995    -0.19500
C1066       C  0.26649163  0.88431619  0.66936419     0.20800
C1067       C  0.25055384  0.91151758  0.66736347    -0.32500
C1068       C  0.22732260  0.91696964  0.67831622     0.01500
C1069       C  0.22294676  0.89755885  0.69176129    -0.23800
C1070       C  0.27295027  0.77722969  0.69848180    -0.28400
C1071       C  0.28776264  0.76511267  0.68652209     0.07200
C1072       C  0.29639300  0.78794128  0.67356923    -0.27100
H1073       H  0.23972716  0.80314011  0.71900403     0.11900
H1074       H  0.21770032  0.85539251  0.71607034     0.13000
H1075       H  0.31100727  0.83748400  0.65037814     0.12100
H1076       H  0.29169630  0.89189408  0.64778611     0.11300
H1077       H  0.25307043  0.92566003  0.65688100     0.16700
H1078       H  0.20440618  0.90115132  0.70011623     0.12600
H1079       H  0.26620190  0.75958800  0.70845061     0.15500
H1080       H  0.30825675  0.77890342  0.66437377     0.15300
C1081       C  0.16562199  0.95560051  0.59344087    -0.17600
C1082       C  0.18450059  0.95776792  0.60681937    -0.19800
C1083       C  0.17319664  0.97198083  0.61914551     0.20900
C1084       C  0.14426737  0.98630779  0.61779437    -0.02700
C1085       C  0.12580827  0.98487071  0.60422468    -0.05800
C1086       C  0.13547182  0.96812588  0.59208720     0.21100
C1087       C  0.09614564  0.99829325  0.60297723     0.19300
C1088       C  0.08595758  0.01390395  0.61518303    -0.17300
C1089       C  0.10330236  0.01420494  0.62866765    -0.19500
C1090       C  0.13176853  0.99963696  0.63015249     0.20800
C1091       C  0.14561765  0.99539904  0.64386371    -0.32500
C1092       C  0.17258152  0.97897231  0.64535844     0.01500
C1093       C  0.18784992  0.96923478  0.63291749    -0.23800
C1094       C  0.11373376  0.96287696  0.57899475    -0.28400
C1095       C  0.08344736  0.97541800  0.57778902     0.07200
C1096       C  0.07587618  0.99428571  0.58971307    -0.27100
H1097       H  0.17386007  0.94314283  0.58422269     0.11900
H1098       H  0.20675219  0.94677359  0.60763121     0.13000
H1099       H  0.06337295  0.02448983  0.61440242     0.12100
H1100       H  0.09358102  0.02482155  0.63801261     0.11300
H1101       H  0.13313884  0.00207831  0.65344288     0.16700
H1102       H  0.20774774  0.95550854  0.63407493     0.12600
H1103       H  0.12005321  0.94874801  0.56979036     0.15500
H1104       H  0.05249448  0.00385891  0.58886516     0.15300
C1105       C  0.32108954  0.36442521  0.71818959    -0.17600
C1106       C  0.33279378  0.33384196  0.71973444    -0.19800
C1107       C  0.35198181  0.32483794  0.70829305     0.20900
C1108       C  0.35743858  0.34538421  0.69492745    -0.02700
C1109       C  0.34568965  0.37633610  0.69337391    -0.05800
C1110       C  0.32839719  0.38659581  0.70518371     0.21100
C1111       C  0.35316436  0.39843317  0.68023218     0.19300
C1112       C  0.37123046  0.38855072  0.66866781    -0.17300
C1113       C  0.38315163  0.35817604  0.67024232    -0.19500
C1114       C  0.37712005  0.33701446  0.68339122     0.20800
C1115       C  0.39340732  0.31020824  0.68553574    -0.32500
C1116       C  0.39114612  0.29235535  0.69912216     0.01500
C1117       C  0.36877976  0.29828683  0.71029397    -0.23800
C1118       C  0.32027086  0.41990832  0.70395644    -0.28400
C1119       C  0.32852952  0.44267493  0.69101194     0.07200
C1120       C  0.34390216  0.43103867  0.67906587    -0.27100
H1121       H  0.30747635  0.37164249  0.72732156     0.11900
H1122       H  0.32816371  0.31828068  0.73004811     0.13000
H1123       H  0.37717568  0.40511955  0.65850655     0.12100
H1124       H  0.39825618  0.35212734  0.66128988     0.11300
H1125       H  0.41149588  0.30644790  0.67704903     0.16700
H1126       H  0.36798754  0.28547737  0.72089664     0.12600
H1127       H  0.30811320  0.42864550  0.71314548     0.15500
H1128       H  0.35047259  0.44865998  0.66909873     0.15300
C1129       C  0.44241145  0.20699223  0.77883234    -0.17600
C1130       C  0.42629284  0.20714927  0.76514907    -0.19800
C1131       C  0.45184162  0.21710413  0.75286080     0.20900
C1132       C  0.49367396  0.22550889  0.75434158    -0.02700
C1133       C  0.50994679  0.22532426  0.76814525    -0.05800
C1134       C  0.48436942  0.21674099  0.78048070     0.21100
C1135       C  0.55236455  0.23560612  0.76965850     0.19300
C1136       C  0.57779868  0.24500978  0.75737641    -0.17300
C1137       C  0.56175285  0.24542063  0.74372931    -0.19500
C1138       C  0.51997061  0.23631832  0.74213449     0.20800
C1139       C  0.50498202  0.24068351  0.72871713    -0.32500
C1140       C  0.46452401  0.23566331  0.72737465     0.01500
C1141       C  0.43733070  0.22174266  0.73931709    -0.23800
C1142       C  0.50171232  0.21964920  0.79425189    -0.28400
C1143       C  0.54410215  0.23078363  0.79574809     0.07200
C1144       C  0.56904005  0.23791360  0.78346662    -0.27100
H1145       H  0.42232438  0.20021031  0.78817270     0.11900
H1146       H  0.39416187  0.20065777  0.76422896     0.13000
H1147       H  0.61042244  0.25305938  0.75836412     0.12100
H1148       H  0.58238092  0.25394803  0.73446016     0.11300
H1149       H  0.52607428  0.25151915  0.71952668     0.16700
H1150       H  0.40642154  0.21849734  0.73839834     0.12600
H1151       H  0.48274015  0.21448752  0.80380588     0.15500
H1152       H  0.60189768  0.24689909  0.78472691     0.15300
C1153       C  0.34986253  0.06308440  0.68798842    -0.17600
C1154       C  0.37749192  0.10073993  0.69516902    -0.19800
C1155       C  0.36657909  0.13182461  0.69733577     0.20900
C1156       C  0.32722990  0.12457993  0.69235734    -0.02700
C1157       C  0.29957001  0.08680333  0.68492300    -0.05800
C1158       C  0.31089538  0.05587834  0.68273044     0.21100
C1159       C  0.26054656  0.07997831  0.67974284     0.19300
C1160       C  0.24931622  0.11071038  0.68210951    -0.17300
C1161       C  0.27651387  0.14788908  0.68955683    -0.19500
C1162       C  0.31564452  0.15523952  0.69467186     0.20800
C1163       C  0.34378626  0.19326737  0.70165174    -0.32500
C1164       C  0.38457921  0.20247866  0.70574886     0.01500
C1165       C  0.39495609  0.17059749  0.70388637    -0.23800
C1166       C  0.28275521  0.01799363  0.67561053    -0.28400
C1167       C  0.24295026  0.01010694  0.67079866     0.07200
C1168       C  0.23280517  0.04205540  0.67268517    -0.27100
H1169       H  0.35906995  0.03964342  0.68649831     0.11900
H1170       H  0.40756858  0.10566716  0.69894677     0.13000
H1171       H  0.21935008  0.10590501  0.67825502     0.12100
H1172       H  0.26710872  0.17113367  0.69118062     0.11300
H1173       H  0.33398891  0.21597299  0.70342578     0.16700
H1174       H  0.42606786  0.17663988  0.70676120     0.12600
H1175       H  0.29166871  0.99444483  0.67414488     0.15500
H1176       H  0.20216649  0.03656044  0.66939116     0.15300
C1177       C  0.70920914  0.07113842  0.33030424    -0.17600
C1178       C  0.72430319  0.04319402  0.33171964    -0.19800
C1179       C  0.71655949  0.01932710  0.34434977     0.20900
C1180       C  0.69156758  0.02205344  0.35535471    -0.02700
C1181       C  0.67723294  0.05092522  0.35408063    -0.05800
C1182       C  0.68665106  0.07607142  0.34158216     0.21100
C1183       C  0.65565542  0.05637526  0.36569128     0.19300
C1184       C  0.64633255  0.03130858  0.37804796    -0.17300
C1185       C  0.65987145  0.00218804  0.37920152    -0.19500
C1186       C  0.68341443  0.99812542  0.36809424     0.20800
C1187       C  0.70185842  0.97323382  0.37002855    -0.32500
C1188       C  0.73017322  0.97387501  0.35978734     0.01500
C1189       C  0.73606863  0.99544867  0.34670368    -0.23800
C1190       C  0.67522671  0.10711442  0.34095144    -0.28400
C1191       C  0.65604814  0.11404308  0.35288317     0.07200
C1192       C  0.64555028  0.08815611  0.36504892    -0.27100
H1193       H  0.71659128  0.09007151  0.32062682     0.11900
H1194       H  0.74320396  0.04127014  0.32313330     0.13000
H1195       H  0.62955097  0.03503328  0.38698902     0.12100
H1196       H  0.65342341  0.98408417  0.38904025     0.11300
H1197       H  0.69797751  0.95716241  0.38020750     0.16700
H1198       H  0.75828035  0.99614690  0.33887734     0.12600
H1199       H  0.68350059  0.12750887  0.33160966     0.15500
H1200       H  0.63048217  0.09360077  0.37417486     0.15300
C1201       C  0.78314213  0.94718248  0.43182392    -0.17600
C1202       C  0.80018494  0.94701282  0.44533140    -0.19800
C1203       C  0.82485778  0.92812114  0.44713123     0.20900
C1204       C  0.83190988  0.90865142  0.43520997    -0.02700
C1205       C  0.81522302  0.90943571  0.42146514    -0.05800
C1206       C  0.79081349  0.92889078  0.41978810     0.21100
C1207       C  0.82444853  0.89236833  0.40931685     0.19300
C1208       C  0.84885311  0.87318993  0.41116213    -0.17300
C1209       C  0.86448246  0.87148711  0.42482536    -0.19500
C1210       C  0.85664760  0.88953531  0.43692741     0.20800
C1211       C  0.87398565  0.88984293  0.45060121    -0.32500
C1212       C  0.86810530  0.91033347  0.46248083     0.01500
C1213       C  0.84329477  0.92921772  0.46057084    -0.23800
C1214       C  0.77658285  0.93190216  0.40598984    -0.28400
C1215       C  0.78780630  0.91730941  0.39371000     0.07200
C1216       C  0.81109046  0.89685765  0.39548181    -0.27100
H1217       H  0.76470948  0.96249535  0.43072750     0.11900
H1218       H  0.79437678  0.96205710  0.45436509     0.13000
H1219       H  0.85633080  0.85993389  0.40198719     0.12100
H1220       H  0.88348310  0.85677777  0.42586575     0.11300
H1221       H  0.89349183  0.87572992  0.45185251     0.16700
H1222       H  0.83848637  0.94504165  0.46959819     0.12600
H1223       H  0.75995360  0.94901735  0.40461147     0.15500
H1224       H  0.82092762  0.88677975  0.38602000     0.15300
C1225       C  0.61113310  0.54087725  0.32557741    -0.17600
C1226       C  0.62325792  0.51069330  0.32740944    -0.19800
C1227       C  0.61667587  0.48963362  0.34062842     0.20900
C1228       C  0.59830631  0.49955184  0.35218626    -0.02700
C1229       C  0.58549602  0.52957472  0.35026721    -0.05800
C1230       C  0.59184721  0.55027398  0.33688516     0.21100
C1231       C  0.56479201  0.53758144  0.36155697     0.19300
C1232       C  0.55831054  0.51659356  0.37476797    -0.17300
C1233       C  0.57167525  0.48746287  0.37675366    -0.19500
C1234       C  0.59132895  0.47838487  0.36551017     0.20800
C1235       C  0.60260650  0.44737382  0.36718356    -0.32500
C1236       C  0.61935197  0.43623616  0.35554970     0.01500
C1237       C  0.62671153  0.45778666  0.34235083    -0.23800
C1238       C  0.57690777  0.57835853  0.33484611    -0.28400
C1239       C  0.55447978  0.58481158  0.34584367     0.07200
C1240       C  0.54914168  0.56486740  0.35922227    -0.27100
H1241       H  0.61603909  0.55623453  0.31520934     0.11900
H1242       H  0.63730460  0.50342633  0.31841939     0.13000
H1243       H  0.54238063  0.52231427  0.38352640     0.12100
H1244       H  0.56584961  0.47137417  0.38700983     0.11300
H1245       H  0.59605837  0.43016534  0.37724043     0.16700
H1246       H  0.63928949  0.44892896  0.33331152     0.12600
H1247       H  0.57983295  0.59267213  0.32436935     0.15500
H1248       H  0.53099118  0.56910173  0.36756711     0.15300
C1249       C  0.50238471  0.63256752  0.26293536    -0.17600
C1250       C  0.51953075  0.63366146  0.27653525    -0.19800
C1251       C  0.50770429  0.64823275  0.28862785     0.20900
C1252       C  0.47978160  0.66366165  0.28688538    -0.02700
C1253       C  0.46294333  0.66313563  0.27310549    -0.05800
C1254       C  0.47340664  0.64639947  0.26116005     0.21100
C1255       C  0.43401312  0.67736154  0.27143623     0.19300
C1256       C  0.42289327  0.69277797  0.28347343    -0.17300
C1257       C  0.43885437  0.69244066  0.29716405    -0.19500
C1258       C  0.46669264  0.67723697  0.29903534     0.20800
C1259       C  0.47938634  0.67268172  0.31290700    -0.32500
C1260       C  0.50541554  0.65530311  0.31474004     0.01500
C1261       C  0.52093118  0.64487921  0.30253519    -0.23800
C1262       C  0.45333628  0.64211019  0.24782590    -0.28400
C1263       C  0.42366115  0.65520832  0.24620717     0.07200
C1264       C  0.41522239  0.67408569  0.25792158    -0.27100
H1265       H  0.51100479  0.61991889  0.25386802     0.11900
H1266       H  0.54093586  0.62172219  0.27768248     0.13000
H1267       H  0.40074645  0.70383033  0.28238200     0.12100
H1268       H  0.42857849  0.70310144  0.30635287     0.11300
H1269       H  0.46672840  0.67986353  0.32232733     0.16700
H1270       H  0.54010345  0.63043842  0.30397164     0.12600
H1271       H  0.46005119  0.62774577  0.23878346     0.15500
H1272       H  0.39207031  0.68386131  0.25673505     0.15300
C1273       C  0.63857796  0.79180519  0.32685689    -0.17600
C1274       C  0.66579050  0.83219345  0.33234266    -0.19800
C1275       C  0.67793535  0.83794005  0.34692448     0.20900
C1276       C  0.66257885  0.80272673  0.35607200    -0.02700
C1277       C  0.63510556  0.76183284  0.35050785    -0.05800
C1278       C  0.62296162  0.75636360  0.33584291     0.21100
C1279       C  0.61951509  0.72653818  0.35964442     0.19300
C1280       C  0.63176406  0.73235980  0.37422494    -0.17300
C1281       C  0.65912396  0.77281245  0.37971169    -0.19500
C1282       C  0.67476411  0.80832392  0.37074456     0.20800
C1283       C  0.70270925  0.84913968  0.37613153    -0.32500
C1284       C  0.71896276  0.88456339  0.36700097     0.01500
C1285       C  0.70583021  0.87825170  0.35240016    -0.23800
C1286       C  0.59462091  0.71579073  0.33048987    -0.28400
C1287       C  0.57732750  0.68035798  0.33963066     0.07200
C1288       C  0.59096523  0.68623008  0.35417360    -0.27100
H1289       H  0.62955588  0.78832276  0.31558654     0.11900
H1290       H  0.67738902  0.85899322  0.32515732     0.13000
H1291       H  0.62000633  0.70558297  0.38142427     0.12100
H1292       H  0.66805890  0.77630690  0.39098925     0.11300
H1293       H  0.71191610  0.85310996  0.38736348     0.16700
H1294       H  0.71863327  0.90465176  0.34502963     0.12600
H1295       H  0.58524665  0.71212617  0.31928537     0.15500
H1296       H  0.57765480  0.65971378  0.36150359     0.15300
C1297       C  0.77294043  0.93414679  0.10878293    -0.17600
C1298       C  0.78841633  0.92993296  0.09549480    -0.19800
C1299       C  0.83182602  0.95282812  0.09258538     0.20900
C1300       C  0.85979626  0.98143146  0.10297991    -0.02700
C1301       C  0.84420055  0.98537507  0.11648350    -0.05800
C1302       C  0.80062757  0.96110246  0.11944943     0.21100
C1303       C  0.87243958  0.01169411  0.12729050     0.19300
C1304       C  0.91569497  0.03572305  0.12416651    -0.17300
C1305       C  0.93105045  0.03242291  0.11069461    -0.19500
C1306       C  0.90349727  0.00467811  0.10013598     0.20800
C1307       C  0.91896560  0.99862504  0.08701612    -0.32500
C1308       C  0.89139682  0.96879475  0.07684270     0.01500
C1309       C  0.84779038  0.94656349  0.07966173    -0.23800
C1310       C  0.78587631  0.96191241  0.13333448    -0.28400
C1311       C  0.81422723  0.98526162  0.14446139     0.07200
C1312       C  0.85727864  0.01118816  0.14127999    -0.27100
H1313       H  0.73940836  0.91526833  0.11088689     0.11900
H1314       H  0.76648160  0.90804024  0.08760110     0.13000
H1315       H  0.93782993  0.05624639  0.13228495     0.12100
H1316       H  0.96468517  0.05063742  0.10869761     0.11300
H1317       H  0.95263656  0.01584814  0.08499652     0.16700
H1318       H  0.82623636  0.92391107  0.07185072     0.12600
H1319       H  0.75282295  0.94114373  0.13587474     0.15500
H1320       H  0.87924154  0.02852851  0.14991264     0.15300
C1321       C  0.56481592  0.83351833  0.15833281    -0.17600
C1322       C  0.60702868  0.86465726  0.15644841    -0.19800
C1323       C  0.63395238  0.88179529  0.16839164     0.20900
C1324       C  0.61796366  0.86833605  0.18242659    -0.02700
C1325       C  0.57507575  0.83727614  0.18434493    -0.05800
C1326       C  0.54873442  0.81924539  0.17220084     0.21100
C1327       C  0.55896381  0.82321207  0.19834094     0.19300
C1328       C  0.58590037  0.84095866  0.21029002    -0.17300
C1329       C  0.62866852  0.87109066  0.20836693    -0.19500
C1330       C  0.64518724  0.88456713  0.19447092     0.20800
C1331       C  0.68864221  0.91242889  0.19231164    -0.32500
C1332       C  0.70466230  0.92504760  0.17830126     0.01500
C1333       C  0.67698211  0.91062303  0.16646836    -0.23800
C1334       C  0.50714537  0.78628816  0.17406548    -0.28400
C1335       C  0.49104374  0.77115095  0.18790782     0.07200
C1336       C  0.51672233  0.79062207  0.20005995    -0.27100
H1337       H  0.54489338  0.82008530  0.14891235     0.11900
H1338       H  0.61887924  0.87461346  0.14561126     0.13000
H1339       H  0.57415754  0.83068750  0.22111607     0.12100
H1340       H  0.64898954  0.88333902  0.21774672     0.11300
H1341       H  0.71019734  0.92296236  0.20140448     0.16700
H1342       H  0.68957156  0.91953684  0.15564783     0.12600
H1343       H  0.48733895  0.77184156  0.16467183     0.15500
H1344       H  0.50451180  0.77904319  0.21075573     0.15300
C1345       C  0.79629479  0.24044707  0.28087514    -0.17600
C1346       C  0.81114549  0.23945302  0.26704588    -0.19800
C1347       C  0.78728184  0.23621335  0.25474845     0.20900
C1348       C  0.74728051  0.23226806  0.25646060    -0.02700
C1349       C  0.73197269  0.23254601  0.27043228    -0.05800
C1350       C  0.75703838  0.23766875  0.28268984     0.21100
C1351       C  0.69228194  0.22934371  0.27208575     0.19300
C1352       C  0.66818872  0.22562820  0.25982584    -0.17300
C1353       C  0.68377977  0.22638585  0.24600828    -0.19500
C1354       C  0.72348020  0.23024907  0.24419885     0.20800
C1355       C  0.74092351  0.23490750  0.23038506    -0.32500
C1356       C  0.78165996  0.24117615  0.22863355     0.01500
C1357       C  0.80386543  0.23978121  0.24080081    -0.23800
C1358       C  0.74282594  0.24101603  0.29646185    -0.28400
C1359       C  0.70327336  0.23782766  0.29811679     0.07200
C1360       C  0.67790631  0.23120297  0.28592679    -0.27100
H1361       H  0.81585769  0.24409677  0.29014580     0.11900
H1362       H  0.84193370  0.24256609  0.26595163     0.13000
H1363       H  0.63769273  0.22320009  0.26091357     0.12100
H1364       H  0.66510524  0.22478146  0.23671726     0.11300
H1365       H  0.72412242  0.23671315  0.22104392     0.16700
H1366       H  0.83572683  0.24570106  0.23951142     0.12600
H1367       H  0.76246081  0.24625320  0.30586937     0.15500
H1368       H  0.64771554  0.22940565  0.28718598     0.15300
C1369       C  0.00063384  0.36009460  0.22288650    -0.17600
C1370       C  0.04348480  0.39012738  0.22162168    -0.19800
C1371       C  0.06204884  0.40327393  0.20798339     0.20900
C1372       C  0.03748790  0.38516296  0.19547255    -0.02700
C1373       C  0.99395371  0.35522926  0.19674932    -0.05800
C1374       C  0.97548288  0.34299899  0.21053698     0.21100
C1375       C  0.96855201  0.33922241  0.18427137     0.19300
C1376       C  0.98750482  0.35155455  0.17063357    -0.17300
C1377       C  0.03085547  0.38049920  0.16936799    -0.19500
C1378       C  0.05601808  0.39817789  0.18171303     0.20800
C1379       C  0.09889662  0.42970424  0.18057465    -0.32500
C1380       C  0.12300882  0.44920113  0.19303567     0.01500
C1381       C  0.10439376  0.43518430  0.20667714    -0.23800
C1382       C  0.93177644  0.31599612  0.21176734    -0.28400
C1383       C  0.90588800  0.30250488  0.19945504     0.07200
C1384       C  0.92445640  0.31331210  0.18570532    -0.27100
H1385       H  0.98689048  0.35113077  0.23354369     0.11900
H1386       H  0.06196972  0.40362623  0.23132968     0.13000
H1387       H  0.96862578  0.33949420  0.16092881     0.12100
H1388       H  0.04446485  0.38998063  0.15871217     0.11300
H1389       H  0.11289267  0.44045925  0.17002128     0.16700
H1390       H  0.12280105  0.44967710  0.21633605     0.12600
H1391       H  0.91732545  0.30853239  0.22236093     0.15500
H1392       H  0.90442215  0.30364995  0.17621718     0.15300
C1393       C  0.72244939  0.07505295  0.18216898    -0.17600
C1394       C  0.73096126  0.11257616  0.18903855    -0.19800
C1395       C  0.77210510  0.14206059  0.19359812     0.20900
C1396       C  0.80493170  0.13361748  0.19117674    -0.02700
C1397       C  0.79642012  0.09596546  0.18411131    -0.05800
C1398       C  0.75495740  0.06637009  0.17962597     0.21100
C1399       C  0.82945739  0.08787192  0.18164468     0.19300
C1400       C  0.87045172  0.11702782  0.18631632    -0.17300
C1401       C  0.87884506  0.15419071  0.19328838    -0.19500
C1402       C  0.84641041  0.16292946  0.19571923     0.20800
C1403       C  0.85502947  0.20087482  0.20232811    -0.32500
C1404       C  0.82290334  0.21039294  0.20438075     0.01500
C1405       C  0.78124558  0.18024683  0.20021140    -0.23800
C1406       C  0.74675890  0.02839455  0.17297670    -0.28400
C1407       C  0.77964837  0.01994719  0.17063173     0.07200
C1408       C  0.82094957  0.05035762  0.17485468    -0.27100
H1409       H  0.69040895  0.05281522  0.17884629     0.11900
H1410       H  0.70531921  0.11855161  0.19077723     0.13000
H1411       H  0.89610974  0.11108178  0.18457164     0.12100
H1412       H  0.91083522  0.17627160  0.19669964     0.11300
H1413       H  0.88697083  0.22341824  0.20559878     0.16700
H1414       H  0.75623642  0.18737270  0.20151749     0.12600
H1415       H  0.71481408  0.00503375  0.16994018     0.15500
H1416       H  0.84634617  0.04382321  0.17350343     0.15300
C1417       C  0.88213689  0.20337526  0.34345051    -0.17600
C1418       C  0.84650000  0.20363009  0.34864652    -0.19800
C1419       C  0.84720183  0.24183875  0.35057885     0.20900
C1420       C  0.88481981  0.28023189  0.34783746    -0.02700
C1421       C  0.92102073  0.27998678  0.34284427    -0.05800
C1422       C  0.91929019  0.24132804  0.34026312     0.21100
C1423       C  0.95808172  0.31836673  0.33959318     0.19300
C1424       C  0.95909566  0.35658686  0.34182249    -0.17300
C1425       C  0.92314679  0.35680711  0.34659614    -0.19500
C1426       C  0.88564056  0.31882828  0.34932059     0.20800
C1427       C  0.84845394  0.31872069  0.35278028    -0.32500
C1428       C  0.81059819  0.28062444  0.35502484     0.01500
C1429       C  0.81046002  0.24233583  0.35444505    -0.23800
C1430       C  0.95370618  0.24130386  0.33367223    -0.28400
C1431       C  0.98988092  0.27939864  0.32977975     0.07200
C1432       C  0.99242842  0.31779487  0.33324830    -0.27100
H1433       H  0.88027537  0.17341732  0.34157088     0.11900
H1434       H  0.81793369  0.17385944  0.35068974     0.13000
H1435       H  0.98728452  0.38631019  0.33939570     0.12100
H1436       H  0.92434964  0.38668954  0.34777598     0.11300
H1437       H  0.84855818  0.34821376  0.35328188     0.16700
H1438       H  0.78113620  0.21286790  0.35604069     0.12600
H1439       H  0.95132574  0.21169573  0.33067032     0.15500
H1440       H  0.01976598  0.34712288  0.32985630     0.15300
C1441       C  0.18150743  0.48703523  0.28049683    -0.17600
C1442       C  0.15734433  0.45726941  0.29105939    -0.19800
C1443       C  0.15081856  0.41623294  0.29048856     0.20900
C1444       C  0.17005484  0.40560668  0.27938430    -0.02700
C1445       C  0.19498209  0.43588209  0.26882402    -0.05800
C1446       C  0.19996839  0.47649926  0.26921655     0.21100
C1447       C  0.21335840  0.42489212  0.25752709     0.19300
C1448       C  0.20691608  0.38392339  0.25696602    -0.17300
C1449       C  0.18155416  0.35376081  0.26722357    -0.19500
C1450       C  0.16260145  0.36410953  0.27837689     0.20800
C1451       C  0.13428273  0.33307463  0.28796758    -0.32500
C1452       C  0.11354791  0.34292893  0.29866337     0.01500
C1453       C  0.12326562  0.38495891  0.30022443    -0.23800
C1454       C  0.22186298  0.50520358  0.25802390    -0.28400
C1455       C  0.23960687  0.49417533  0.24657608     0.07200
C1456       C  0.23628145  0.45439845  0.24665286    -0.27100
H1457       H  0.18508379  0.51809589  0.28100138     0.11900
H1458       H  0.14275074  0.46601769  0.29945349     0.13000
H1459       H  0.22060858  0.37485293  0.24835668     0.12100
H1460       H  0.17612670  0.32204731  0.26627195     0.11300
H1461       H  0.12603087  0.30054265  0.28649495     0.16700
H1462       H  0.10630172  0.39240795  0.30812608     0.12600
H1463       H  0.22430357  0.53582602  0.25802234     0.15500
H1464       H  0.24933113  0.44551331  0.23777173     0.15300
C1465       C  0.12067576  0.08377168  0.43781396    -0.17600
C1466       C  0.14507396  0.11538840  0.42787081    -0.19800
C1467       C  0.14529713  0.15362293  0.42793733     0.20900
C1468       C  0.11987696  0.15972978  0.43789327    -0.02700
C1469       C  0.09462154  0.12744274  0.44778592    -0.05800
C1470       C  0.09572048  0.08965099  0.44790457     0.21100
C1471       C  0.06945122  0.13353896  0.45786256     0.19300
C1472       C  0.06953280  0.17175875  0.45785032    -0.17300
C1473       C  0.09532838  0.20413554  0.44827211    -0.19500
C1474       C  0.12102849  0.19867306  0.43836012     0.20800
C1475       C  0.14926503  0.23193200  0.42937483    -0.32500
C1476       C  0.17515264  0.22607521  0.41963982     0.01500
C1477       C  0.17204820  0.18652942  0.41869187    -0.23800
C1478       C  0.07291067  0.05892207  0.45837989    -0.28400
C1479       C  0.04838743  0.06501098  0.46865117     0.07200
C1480       C  0.04591067  0.10195464  0.46808550    -0.27100
H1481       H  0.12176462  0.05489601  0.43773527     0.11900
H1482       H  0.16454952  0.11029920  0.42033415     0.13000
H1483       H  0.05044807  0.17703651  0.46550757     0.12100
H1484       H  0.09564193  0.23370469  0.44876689     0.11300
H1485       H  0.15238441  0.26274492  0.43033483     0.16700
H1486       H  0.19292756  0.18245482  0.41148572     0.12600
H1487       H  0.07474072  0.03043288  0.45869057     0.15500
H1488       H  0.02739431  0.10704467  0.47605385     0.15300
C1489       C  0.39564181  0.35010642  0.36970227    -0.17600
C1490       C  0.42879303  0.34618283  0.36405712    -0.19800
C1491       C  0.42514800  0.30643271  0.36285706     0.20900
C1492       C  0.38691773  0.27006192  0.36672884    -0.02700
C1493       C  0.35312331  0.27398334  0.37220972    -0.05800
C1494       C  0.35803361  0.31431985  0.37410871     0.21100
C1495       C  0.31552201  0.23778128  0.37665221     0.19300
C1496       C  0.31132333  0.19790400  0.37494529    -0.17300
C1497       C  0.34493853  0.19406984  0.36967861    -0.19500
C1498       C  0.38329791  0.23002441  0.36592005     0.20800
C1499       C  0.41872534  0.22693227  0.36210738    -0.32500
C1500       C  0.45740442  0.26328928  0.35875644     0.01500
C1501       C  0.45979803  0.30268581  0.35861335    -0.23800
C1502       C  0.32649198  0.31833629  0.38123869    -0.28400
C1503       C  0.28998626  0.28257216  0.38640387     0.07200
C1504       C  0.28407820  0.24230894  0.38362380    -0.27100
H1505       H  0.39990881  0.38128976  0.37101185     0.11900
H1506       H  0.45788626  0.37443023  0.36110966     0.13000
H1507       H  0.28259392  0.16974619  0.37821430     0.12100
H1508       H  0.34137181  0.16303858  0.36898124     0.11300
H1509       H  0.41664439  0.19647561  0.36217623     0.16700
H1510       H  0.48959454  0.33084537  0.35617250     0.12600
H1511       H  0.33151577  0.34939425  0.38363117     0.15500
H1512       H  0.25648057  0.21474706  0.38791879     0.15300
C1513       C  0.16640119  0.26782285  0.33588448    -0.17600
C1514       C  0.18650961  0.25915400  0.34705527    -0.19800
C1515       C  0.17803964  0.26341733  0.36150763     0.20900
C1516       C  0.14838485  0.27582581  0.36471343    -0.02700
C1517       C  0.12805329  0.28465265  0.35340213    -0.05800
C1518       C  0.13740387  0.28091373  0.33894040     0.21100
C1519       C  0.09860216  0.29737185  0.35655555     0.19300
C1520       C  0.08940675  0.30064448  0.37103909    -0.17300
C1521       C  0.10972931  0.29214863  0.38224053    -0.19500
C1522       C  0.13956772  0.28007037  0.37918966     0.20800
C1523       C  0.16178983  0.27362481  0.39032055    -0.32500
C1524       C  0.19303485  0.26306205  0.38724633     0.01500
C1525       C  0.19968397  0.25668172  0.37274151    -0.23800
C1526       C  0.11715843  0.28958749  0.32774963    -0.28400
C1527       C  0.08719966  0.30184044  0.33064657     0.07200
C1528       C  0.07859337  0.30610992  0.34519315    -0.27100
H1529       H  0.17372893  0.26449539  0.32482472     0.11900
H1530       H  0.20912355  0.24959542  0.34437796     0.13000
H1531       H  0.06667908  0.31005831  0.37371351     0.12100
H1532       H  0.10242372  0.29547561  0.39330511     0.11300
H1533       H  0.15627296  0.27910399  0.40136251     0.16700
H1534       H  0.22243368  0.24750664  0.37005682     0.12600
H1535       H  0.12349797  0.28497124  0.31670930     0.15500
H1536       H  0.05603003  0.31570471  0.34773807     0.15300
C1537       C  0.74037649  0.97992774  0.02000984    -0.17600
C1538       C  0.70650554  0.98269605  0.02562159    -0.19800
C1539       C  0.67312783  0.94809899  0.03263949     0.20900
C1540       C  0.67296740  0.90966735  0.03337627    -0.02700
C1541       C  0.70770259  0.90720673  0.02804316    -0.05800
C1542       C  0.74190454  0.94277039  0.02155167     0.21100
C1543       C  0.70939003  0.87006037  0.03004202     0.19300
C1544       C  0.67514498  0.83482423  0.03646488    -0.17300
C1545       C  0.64043031  0.83699754  0.04150075    -0.19500
C1546       C  0.63955295  0.87458222  0.04034816     0.20800
C1547       C  0.60758411  0.87867555  0.04703408    -0.32500
C1548       C  0.60964846  0.91787342  0.04748858     0.01500
C1549       C  0.64166374  0.95210821  0.03986316    -0.23800
C1550       C  0.77817256  0.94150804  0.01760915    -0.28400
C1551       C  0.78142991  0.90579629  0.02065465     0.07200
C1552       C  0.74627765  0.86966390  0.02640203    -0.27100
H1553       H  0.76628469  0.00749359  0.01501680     0.11900
H1554       H  0.70706807  0.01234865  0.02486078     0.13000
H1555       H  0.67577722  0.80596491  0.03800130     0.12100
H1556       H  0.61503610  0.80977862  0.04683143     0.11300
H1557       H  0.58357990  0.85262710  0.05326466     0.16700
H1558       H  0.64385474  0.98257125  0.04049518     0.12600
H1559       H  0.80514850  0.96953819  0.01326522     0.15500
H1560       H  0.74837394  0.84187241  0.02865951     0.15300
C1561       C  0.43330481  0.75639147  0.08707099    -0.17600
C1562       C  0.41041804  0.72763066  0.09802720    -0.19800
C1563       C  0.40191990  0.74148474  0.11101876     0.20900
C1564       C  0.41473769  0.78448033  0.11269178    -0.02700
C1565       C  0.43842177  0.81363839  0.10170762    -0.05800
C1566       C  0.44857222  0.79961641  0.08897228     0.21100
C1567       C  0.45441590  0.85709584  0.10391212     0.19300
C1568       C  0.44397312  0.87067786  0.11657550    -0.17300
C1569       C  0.41973101  0.84171556  0.12730934    -0.19500
C1570       C  0.40593016  0.79870295  0.12565346     0.20800
C1571       C  0.38510057  0.76998024  0.13693721    -0.32500
C1572       C  0.37437441  0.72761093  0.13560264     0.01500
C1573       C  0.38236446  0.71346463  0.12256178    -0.23800
C1574       C  0.47667179  0.82927544  0.07896761    -0.28400
C1575       C  0.49608127  0.87263841  0.08188620     0.07200
C1576       C  0.48331815  0.88632190  0.09400969    -0.27100
H1577       H  0.44062844  0.74502035  0.07735713     0.11900
H1578       H  0.40039524  0.69466965  0.09649714     0.13000
H1579       H  0.45574650  0.90389966  0.11839655     0.12100
H1580       H  0.41310010  0.85319327  0.13714117     0.11300
H1581       H  0.37916486  0.78095760  0.14702743     0.16700
H1582       H  0.37389921  0.68075034  0.12151107     0.12600
H1583       H  0.48707655  0.81870659  0.06977463     0.15500
H1584       H  0.49864548  0.91976680  0.09634260     0.15300
C1585       C  0.59712047  0.18773790  0.95090833    -0.17600
C1586       C  0.57959609  0.16902988  0.96417378    -0.19800
C1587       C  0.54199392  0.12990047  0.96472054     0.20900
C1588       C  0.52249136  0.10876253  0.95176571    -0.02700
C1589       C  0.53976804  0.12798578  0.93836412    -0.05800
C1590       C  0.57709662  0.16781784  0.93796572     0.21100
C1591       C  0.51866089  0.10826256  0.92540790     0.19300
C1592       C  0.48152467  0.06876465  0.92595328    -0.17300
C1593       C  0.46452699  0.04963333  0.93923339    -0.19500
C1594       C  0.48425902  0.06975644  0.95220476     0.20800
C1595       C  0.46453930  0.05352330  0.96553895    -0.32500
C1596       C  0.48171995  0.07667465  0.97830715     0.01500
C1597       C  0.52164607  0.11341988  0.97791696    -0.23800
C1598       C  0.59298779  0.18758720  0.92465688    -0.28400
C1599       C  0.57133621  0.16864457  0.91182597     0.07200
C1600       C  0.53440180  0.12898413  0.91219731    -0.27100
H1601       H  0.62575190  0.21832505  0.95078002     0.11900
H1602       H  0.59486560  0.18572146  0.97401866     0.13000
H1603       H  0.46506209  0.05311696  0.91611514     0.12100
H1604       H  0.43512075  0.01975262  0.93936645     0.11300
H1605       H  0.43317071  0.02589068  0.96576032     0.16700
H1606       H  0.53432873  0.13184463  0.98769253     0.12600
H1607       H  0.62139444  0.21838365  0.92428097     0.15500
H1608       H  0.51790130  0.11452949  0.90222602     0.15300
C1609       C  0.24774978  0.01396895  0.04075818    -0.17600
C1610       C  0.29037942  0.02844853  0.03808127    -0.19800
C1611       C  0.30231149  0.01289386  0.02629563     0.20900
C1612       C  0.27101649  0.98039389  0.01769874    -0.02700
C1613       C  0.22806396  0.96642532  0.02020814    -0.05800
C1614       C  0.21647776  0.98413481  0.03156950     0.21100
C1615       C  0.19702960  0.93706814  0.01069446     0.19300
C1616       C  0.20880038  0.91951655  0.99949254    -0.17300
C1617       C  0.25132099  0.93293178  0.99712912    -0.19500
C1618       C  0.28273077  0.96443880  0.00583515     0.20800
C1619       C  0.32545212  0.98306034  0.00207787    -0.32500
C1620       C  0.35602212  0.01849128  0.00963460     0.01500
C1621       C  0.34469040  0.03188744  0.02214514    -0.23800
C1622       C  0.17423525  0.97366721  0.03294840    -0.28400
C1623       C  0.14405451  0.94685700  0.02284078     0.07200
C1624       C  0.15520755  0.92772856  0.01202027    -0.27100
H1625       H  0.23938146  0.02758358  0.04959741     0.11900
H1626       H  0.31407430  0.05310859  0.04486125     0.13000
H1627       H  0.18525490  0.89660715  0.99220849     0.12100
H1628       H  0.25974929  0.92021488  0.98803475     0.11300
H1629       H  0.33429675  0.97329936  0.99229852     0.16700
H1630       H  0.36843172  0.05955236  0.02785538     0.12600
H1631       H  0.16531222  0.98834091  0.04128284     0.15500
H1632       H  0.13157927  0.90687080  0.00430937     0.15300
C1633       C  0.46228844  0.97602921  0.05396681    -0.17600
C1634       C  0.44685074  0.99585228  0.04514875    -0.19800
C1635       C  0.45038789  0.99504071  0.03012290     0.20900
C1636       C  0.46903168  0.97357560  0.02383766    -0.02700
C1637       C  0.48497431  0.95368187  0.03280246    -0.05800
C1638       C  0.48170933  0.95525690  0.04790348     0.21100
C1639       C  0.50523187  0.93342748  0.02672371     0.19300
C1640       C  0.50817220  0.93236198  0.01161740    -0.17300
C1641       C  0.49201920  0.95184624  0.00269809    -0.19500
C1642       C  0.47276863  0.97304894  0.00868455     0.20800
C1643       C  0.45788907  0.99436990  0.99991956    -0.32500
C1644       C  0.43958910  0.01621610  0.00625405     0.01500
C1645       C  0.43637831  0.01629311  0.02137055    -0.23800
C1646       C  0.49928850  0.93754004  0.05680105    -0.28400
C1647       C  0.52095172  0.91837854  0.05104536     0.07200
C1648       C  0.52322821  0.91591551  0.03588701    -0.27100
H1649       H  0.45963832  0.97753252  0.06556193     0.11900
H1650       H  0.43249160  0.01220997  0.05009779     0.13000
H1651       H  0.52348623  0.91692397  0.00669137     0.12100
H1652       H  0.49518386  0.95087544  0.99111309     0.11300
H1653       H  0.46081200  0.99424688  0.98830728     0.16700
H1654       H  0.42402593  0.03427217  0.02645070     0.12600
H1655       H  0.49817120  0.94105708  0.06835095     0.15500
H1656       H  0.53984124  0.90143935  0.03125813     0.15300
C1657       C  0.48765976  0.57315568  0.60253912    -0.17600
C1658       C  0.47201109  0.57407152  0.61620298    -0.19800
C1659       C  0.43029129  0.56501029  0.61783958     0.20900
C1660       C  0.40347431  0.55301548  0.60566625    -0.02700
C1661       C  0.41950377  0.55288164  0.59183488    -0.05800
C1662       C  0.46203338  0.56373495  0.59025017     0.21100
C1663       C  0.39374746  0.54452425  0.57952650     0.19300
C1664       C  0.35144244  0.53346749  0.58123402    -0.17300
C1665       C  0.33525433  0.53254918  0.59496686    -0.19500
C1666       C  0.36128223  0.54330776  0.60720336     0.20800
C1667       C  0.34645523  0.54635649  0.62083985    -0.32500
C1668       C  0.37374239  0.56063789  0.63281789     0.01500
C1669       C  0.41541494  0.56935271  0.63130583    -0.23800
C1670       C  0.47899052  0.56806685  0.57636901    -0.28400
C1671       C  0.45449342  0.56363072  0.56412874     0.07200
C1672       C  0.41156109  0.55034567  0.56573389    -0.27100
H1673       H  0.52033368  0.58146639  0.60152118     0.11900
H1674       H  0.49288006  0.58290946  0.62545058     0.13000
H1675       H  0.33118080  0.52669133  0.57190820     0.12100
H1676       H  0.30276383  0.52488292  0.59596036     0.11300
H1677       H  0.31436967  0.53991364  0.62199476     0.16700
H1678       H  0.43634597  0.58010548  0.64057439     0.12600
H1679       H  0.51230647  0.57905389  0.57510916     0.15500
H1680       H  0.39286149  0.54732211  0.55626686     0.15300
C1681       C  0.71603317  0.71050166  0.55161437    -0.17600
C1682       C  0.67345403  0.68035791  0.55355311    -0.19800
C1683       C  0.64541431  0.66681054  0.54182090     0.20900
C1684       C  0.66068499  0.68267759  0.52789831    -0.02700
C1685       C  0.70379651  0.71282659  0.52591578    -0.05800
C1686       C  0.73129480  0.72743213  0.53789799     0.21100
C1687       C  0.71895566  0.72969348  0.51206922     0.19300
C1688       C  0.69100266  0.71545562  0.50030392    -0.17300
C1689       C  0.64814139  0.68608326  0.50230880    -0.19500
C1690       C  0.63253370  0.67003649  0.51608751     0.20800
C1691       C  0.58906871  0.64335764  0.51841022    -0.32500
C1692       C  0.57367674  0.62863583  0.53232405     0.01500
C1693       C  0.60206595  0.63946553  0.54389475    -0.23800
C1694       C  0.77310952  0.75998401  0.53606911    -0.28400
C1695       C  0.78805501  0.77805277  0.52241546     0.07200
C1696       C  0.76127245  0.76180874  0.51036353    -0.27100
H1697       H  0.73684072  0.72128410  0.56090543     0.11900
H1698       H  0.66222607  0.66848860  0.56430337     0.13000
H1699       H  0.70205519  0.72796359  0.48960500     0.12100
H1700       H  0.62701693  0.67659309  0.49311903     0.11300
H1701       H  0.56699174  0.63569535  0.50957186     0.16700
H1702       H  0.58997866  0.62898491  0.55469079     0.12600
H1703       H  0.79384626  0.77216457  0.54536910     0.15500
H1704       H  0.77265128  0.77581261  0.49984647     0.15300
C1705       C  0.25022078  0.15893505  0.54650640    -0.17600
C1706       C  0.29336082  0.18868742  0.54528102    -0.19800
C1707       C  0.31109329  0.20610608  0.53181876     0.20900
C1708       C  0.28467042  0.19455973  0.51956321    -0.02700
C1709       C  0.24126508  0.16392648  0.52075351    -0.05800
C1710       C  0.22400414  0.14563261  0.53426772     0.21100
C1711       C  0.21559426  0.15035412  0.50830521     0.19300
C1712       C  0.23287631  0.16889143  0.49493761    -0.17300
C1713       C  0.27564031  0.19950400  0.49378978    -0.19500
C1714       C  0.30201286  0.21189621  0.50596601     0.30400
C1715       C  0.34577705  0.23915805  0.50460699    -0.32500
C1716       C  0.37268931  0.24839131  0.51656232     0.01500
C1717       C  0.35501545  0.23273007  0.53021828    -0.23800
C1718       C  0.18132155  0.11337745  0.53518529    -0.28400
C1719       C  0.15619486  0.09836364  0.52266960     0.07200
C1720       C  0.17348658  0.11753601  0.50933251    -0.27100
H1721       H  0.23761148  0.14542211  0.55697872     0.11900
H1722       H  0.31307476  0.19731183  0.55482629     0.13000
H1723       H  0.21349733  0.15903905  0.48529402     0.12100
H1724       H  0.28838075  0.21251355  0.48327694     0.11300
H1725       H  0.35934387  0.25037465  0.49402182     0.16700
H1726       H  0.37572179  0.23919301  0.53940090     0.12600
H1727       H  0.16825211  0.09862360  0.54548238     0.15500
H1728       H  0.15416915  0.10642142  0.49967554     0.15300
C1729       C  0.61043801  0.33963539  0.45297254    -0.17600
C1730       C  0.59491653  0.33858302  0.46688615    -0.19800
C1731       C  0.55171004  0.32306694  0.46915035     0.20900
C1732       C  0.52400320  0.30882210  0.45719905    -0.02700
C1733       C  0.53951582  0.30889547  0.44320230    -0.05800
C1734       C  0.58298273  0.32451946  0.44104994     0.21100
C1735       C  0.51129969  0.29230505  0.43143483     0.19300
C1736       C  0.46816520  0.27689123  0.43366194    -0.17300
C1737       C  0.45296353  0.27753405  0.44742888    -0.19500
C1738       C  0.48051439  0.29315713  0.45928251     0.20800
C1739       C  0.46499591  0.29162827  0.47324914    -0.32500
C1740       C  0.49196110  0.30389371  0.48529066     0.01500
C1741       C  0.53539548  0.31988987  0.48316261    -0.23800
C1742       C  0.59791387  0.32363380  0.42710571    -0.28400
C1743       C  0.56965099  0.30588097  0.41540801     0.07200
C1744       C  0.52645556  0.29050104  0.41770600    -0.27100
H1745       H  0.64386904  0.35157555  0.45157963     0.11900
H1746       H  0.61671475  0.34963330  0.47590436     0.13000
H1747       H  0.44607414  0.26404884  0.42475086     0.12100
H1748       H  0.41945858  0.26510077  0.44884752     0.11300
H1749       H  0.43134884  0.27790707  0.47489172     0.16700
H1750       H  0.55608443  0.32825698  0.49245063     0.12600
H1751       H  0.63116859  0.33497995  0.42547766     0.15500
H1752       H  0.50453192  0.27681146  0.40876874     0.15300
C1753       C  0.40522428  0.43129301  0.52967972    -0.17600
C1754       C  0.39643802  0.39361343  0.52301616    -0.19800
C1755       C  0.42931409  0.38701332  0.51886494     0.20900
C1756       C  0.47150910  0.41877135  0.52148931    -0.02700
C1757       C  0.48042022  0.45699676  0.52819361    -0.05800
C1758       C  0.44705523  0.46316236  0.53225723     0.21100
C1759       C  0.52257716  0.48912428  0.53067486     0.19300
C1760       C  0.55544451  0.48230980  0.52661585    -0.17300
C1761       C  0.54659823  0.44422703  0.52012014    -0.19500
C1762       C  0.50471443  0.41228362  0.51746854     0.20800
C1763       C  0.49540058  0.37356695  0.51125577    -0.32500
C1764       C  0.45317871  0.34089795  0.50900505     0.01500
C1765       C  0.42052999  0.34877209  0.51247328    -0.23800
C1766       C  0.45590789  0.50155578  0.53839038    -0.28400
C1767       C  0.49778763  0.53472448  0.54042806     0.07200
C1768       C  0.53102709  0.52774866  0.53680704    -0.27100
H1769       H  0.37923845  0.43563901  0.53272484     0.11900
H1770       H  0.36385384  0.36952441  0.52115916     0.13000
H1771       H  0.58802792  0.50650420  0.52841174     0.12100
H1772       H  0.57256768  0.43977128  0.51715644     0.11300
H1773       H  0.52109439  0.36816651  0.50885691     0.16700
H1774       H  0.38807190  0.32472609  0.51061287     0.12600
H1775       H  0.42986136  0.50638584  0.54079860     0.15500
H1776       H  0.56337600  0.55252699  0.53841530     0.15300
C1777       C  0.81445769  0.46538648  0.77974601    -0.17600
C1778       C  0.82871783  0.48404334  0.76616339    -0.19800
C1779       C  0.80138144  0.47048052  0.75420483     0.20900
C1780       C  0.75875490  0.43894118  0.75613223    -0.02700
C1781       C  0.74423314  0.42036471  0.76989536    -0.05800
C1782       C  0.77244829  0.43297370  0.78169849     0.21100
C1783       C  0.70185916  0.38805814  0.77169733     0.19300
C1784       C  0.67433500  0.37493316  0.75981218    -0.17300
C1785       C  0.68888421  0.39270393  0.74617142    -0.19500
C1786       C  0.73115961  0.42426844  0.74415479     0.20800
C1787       C  0.74698040  0.43910024  0.73023709    -0.32500
C1788       C  0.79002139  0.46844577  0.72808484     0.01500
C1789       C  0.81657183  0.48554878  0.74021461    -0.23800
C1790       C  0.75834811  0.41231881  0.79511136    -0.28400
C1791       C  0.71605475  0.38004090  0.79696524     0.07200
C1792       C  0.68795082  0.36869249  0.78524172    -0.27100
H1793       H  0.83655192  0.47579391  0.78867505     0.11900
H1794       H  0.86154308  0.50820612  0.76491781     0.13000
H1795       H  0.64172193  0.35013288  0.76098941     0.12100
H1796       H  0.66724051  0.38101945  0.73711455     0.11300
H1797       H  0.72663507  0.42512350  0.72093328     0.16700
H1798       H  0.84998291  0.50725684  0.73860899     0.12600
H1799       H  0.78012774  0.42140102  0.80411219     0.15500
H1800       H  0.65545917  0.34365163  0.78655402     0.15300
C1801       C  0.00780604  0.57249421  0.71684568    -0.17600
C1802       C  0.04981158  0.58284655  0.71541536    -0.19800
C1803       C  0.06491833  0.57759569  0.70216319     0.20900
C1804       C  0.03794471  0.56342481  0.69003942    -0.02700
C1805       C  0.99513281  0.55210531  0.69156137    -0.05800
C1806       C  0.97997390  0.55612447  0.70510310     0.21100
C1807       C  0.96704668  0.53456112  0.67979721     0.19300
C1808       C  0.98285864  0.53156259  0.66632866    -0.17300
C1809       C  0.02559498  0.54388748  0.66471999    -0.19500
C1810       C  0.05323829  0.55876513  0.67660784     0.20800
C1811       C  0.09531814  0.56754122  0.67551306    -0.32500
C1812       C  0.12151969  0.57942130  0.68783560     0.01500
C1813       C  0.10612376  0.58494599  0.70100960    -0.23800
C1814       C  0.93678471  0.54110262  0.70696222    -0.28400
C1815       C  0.90810202  0.52013354  0.69570689     0.07200
C1816       C  0.92345028  0.51797299  0.68200494    -0.27100
H1817       H  0.99669693  0.57583259  0.72729922     0.11900
H1818       H  0.07028416  0.59409330  0.72478403     0.13000
H1819       H  0.96193386  0.51862129  0.65711807     0.12100
H1820       H  0.03665961  0.54033886  0.65428674     0.11300
H1821       H  0.10697721  0.56319993  0.66531084     0.16700
H1822       H  0.12630863  0.59464237  0.71046944     0.12600
H1823       H  0.92493012  0.54204484  0.71757630     0.15500
H1824       H  0.90128083  0.50136730  0.67334409     0.15300
C1825       C  0.59087111  0.69201037  0.71017369    -0.17600
C1826       C  0.63397114  0.70746773  0.70809046    -0.19800
C1827       C  0.64800425  0.69449154  0.69615727     0.20900
C1828       C  0.61820792  0.66409522  0.68659098    -0.02700
C1829       C  0.57467365  0.64900225  0.68855826    -0.05800
C1830       C  0.56103663  0.66362083  0.70027863     0.21100
C1831       C  0.54508459  0.62116862  0.67835781     0.19300
C1832       C  0.55900058  0.60659953  0.66682142    -0.17300
C1833       C  0.60204983  0.62108433  0.66498882    -0.19500
C1834       C  0.63202753  0.65071442  0.67458045     0.20800
C1835       C  0.67552454  0.66927661  0.67186048    -0.32500
C1836       C  0.70514130  0.70204113  0.68070934     0.01500
C1837       C  0.69123929  0.71336812  0.69311325    -0.23800
C1838       C  0.51816267  0.65132207  0.70147801    -0.28400
C1839       C  0.48906521  0.62577332  0.69085843     0.07200
C1840       C  0.50252067  0.61011765  0.67948717    -0.27100
H1841       H  0.58099208  0.70345207  0.71925207     0.11900
H1842       H  0.65642929  0.73057868  0.71558592     0.13000
H1843       H  0.53669296  0.58492654  0.65896388     0.12100
H1844       H  0.61201557  0.61031159  0.65574708     0.11300
H1845       H  0.68613676  0.66088042  0.66218496     0.16700
H1846       H  0.71406104  0.73867270  0.69992342     0.12600
H1847       H  0.50785321  0.66369445  0.71016691     0.15500
H1848       H  0.48004384  0.59040800  0.67129397     0.15300
C1849       C  0.78682760  0.73280259  0.60982129    -0.17600
C1850       C  0.80187824  0.74915118  0.59606403    -0.19800
C1851       C  0.84437565  0.78001707  0.59402165     0.20900
C1852       C  0.87223792  0.79377016  0.60593558    -0.02700
C1853       C  0.85686088  0.77773518  0.61988756    -0.05800
C1854       C  0.81385668  0.74734521  0.62183670     0.21100
C1855       C  0.88398201  0.79374887  0.63196050     0.19300
C1856       C  0.92663481  0.82421136  0.62988205    -0.17300
C1857       C  0.94208730  0.83934938  0.61603363    -0.19500
C1858       C  0.91505706  0.82478942  0.60401185     0.20800
C1859       C  0.92969772  0.84176243  0.59020475    -0.32500
C1860       C  0.90173546  0.82938428  0.57841165     0.01500
C1861       C  0.85917419  0.79832757  0.58038694    -0.23800
C1862       C  0.79799989  0.73422103  0.63584104    -0.28400
C1863       C  0.82411182  0.75230649  0.64797324     0.07200
C1864       C  0.86735854  0.78110944  0.64593282    -0.27100
H1865       H  0.75369571  0.70963374  0.61112571     0.11900
H1866       H  0.78007757  0.73811885  0.58704556     0.13000
H1867       H  0.94791958  0.83692645  0.63901032     0.12100
H1868       H  0.97500309  0.86326204  0.61477558     0.11300
H1869       H  0.96237385  0.86621273  0.58876604     0.16700
H1870       H  0.83753049  0.78884639  0.57133107     0.12600
H1871       H  0.76442905  0.71313447  0.63737697     0.15500
H1872       H  0.88731332  0.79600076  0.65525521     0.15300
C1873       C  0.79739397  0.61124614  0.71494093    -0.17600
C1874       C  0.78611871  0.63956225  0.70934530    -0.19800
C1875       C  0.78664295  0.64615981  0.69440053     0.20900
C1876       C  0.79842868  0.62391099  0.68498752    -0.02700
C1877       C  0.81003313  0.59546845  0.69065040    -0.05800
C1878       C  0.80952989  0.58904028  0.70570789     0.21100
C1879       C  0.82207028  0.57345571  0.68122883     0.19300
C1880       C  0.82203622  0.57960188  0.66627576    -0.17300
C1881       C  0.81066458  0.60780408  0.66068211    -0.19500
C1882       C  0.79908033  0.63039741  0.66993055     0.20800
C1883       C  0.78897018  0.65989478  0.66441666    -0.32500
C1884       C  0.77807890  0.68295469  0.67375889     0.01500
C1885       C  0.77649601  0.67530221  0.68874658    -0.23800
C1886       C  0.82068089  0.56024076  0.71122523    -0.28400
C1887       C  0.83259610  0.53796816  0.70187112     0.07200
C1888       C  0.83337881  0.54520684  0.68687090    -0.27100
H1889       H  0.79668561  0.60677510  0.72650654     0.11900
H1890       H  0.77713517  0.65646935  0.71673008     0.13000
H1891       H  0.83098481  0.56267389  0.65888778     0.12100
H1892       H  0.81125670  0.61218593  0.64911353     0.11300
H1893       H  0.79017500  0.66533685  0.65291374     0.16700
H1894       H  0.76896336  0.69338901  0.69611256     0.12600
H1895       H  0.81974775  0.55489268  0.72273295     0.15500
H1896       H  0.84144440  0.52761977  0.67946662     0.15300
C1897       C  0.36099543  0.05226038  0.83390418    -0.17600
C1898       C  0.31835204  0.02187621  0.83592120    -0.19800
C1899       C  0.30306980  0.00526896  0.84969079     0.20900
C1900       C  0.33128606  0.01875968  0.86148199    -0.02700
C1901       C  0.37404636  0.05017832  0.85951281    -0.05800
C1902       C  0.38904781  0.06713028  0.84565730     0.21100
C1903       C  0.40143439  0.06552820  0.87150981     0.19300
C1904       C  0.38643822  0.04846447  0.88522605    -0.17300
C1905       C  0.34438883  0.01683829  0.88712336    -0.19500
C1906       C  0.31644726  0.00211157  0.87537401     0.20800
C1907       C  0.27353599  0.97261465  0.87742515    -0.32500
C1908       C  0.24489278  0.96099811  0.86593365     0.01500
C1909       C  0.25984859  0.97698326  0.85204443    -0.23800
C1910       C  0.43142481  0.09944597  0.84392742    -0.28400
C1911       C  0.45830487  0.11580051  0.85598525     0.07200
C1912       C  0.44309044  0.09839241  0.86967869    -0.27100
H1913       H  0.37181772  0.06484089  0.82319604     0.11900
H1914       H  0.29718401  0.01178714  0.82673265     0.13000
H1915       H  0.40716952  0.05988840  0.89452997     0.12100
H1916       H  0.33347668  0.00456467  0.89785680     0.11300
H1917       H  0.26181233  0.96118253  0.88818437     0.16700
H1918       H  0.23756313  0.96856725  0.84322968     0.12600
H1919       H  0.44292887  0.11311430  0.83337806     0.15500
H1920       H  0.46379359  0.11081343  0.87898076     0.15300
C1921       C  0.00061869  0.85001708  0.92684273    -0.17600
C1922       C  0.01825011  0.85050609  0.91340598    -0.19800
C1923       C  0.06189512  0.86712600  0.91199599     0.20900
C1924       C  0.08795298  0.88279198  0.92432334    -0.02700
C1925       C  0.07024707  0.88309749  0.93784649    -0.05800
C1926       C  0.02634718  0.86664969  0.93910967     0.21100
C1927       C  0.09666337  0.90115045  0.94997774     0.19300
C1928       C  0.14025637  0.91747833  0.94860805    -0.17300
C1929       C  0.15769664  0.91669020  0.93527714    -0.19500
C1930       C  0.13193514  0.89988649  0.92302399     0.20800
C1931       C  0.14963450  0.90216935  0.90936725    -0.32500
C1932       C  0.12414245  0.88897097  0.89692330     0.01500
C1933       C  0.08020179  0.87056322  0.89837602    -0.23800
C1934       C  0.00918559  0.86835628  0.95249082    -0.28400
C1935       C  0.03556004  0.88760104  0.96449795     0.07200
C1936       C  0.07922261  0.90362542  0.96315663    -0.27100
H1937       H  0.96690755  0.83741149  0.92757609     0.11900
H1938       H  0.99777356  0.83842484  0.90405833     0.13000
H1939       H  0.16098019  0.93137892  0.95782165     0.12100
H1940       H  0.19152152  0.93014283  0.93448164     0.11300
H1941       H  0.18362092  0.91767518  0.90823923     0.16700
H1942       H  0.06064707  0.86146538  0.88877219     0.12600
H1943       H  0.97562736  0.85656633  0.95339187     0.15500
H1944       H  0.09970821  0.91851288  0.97236974     0.15300
C1945       C  0.97271004  0.48772744  0.87390538    -0.17600
C1946       C  0.92921865  0.46049850  0.87527609    -0.19800
C1947       C  0.90130075  0.46076997  0.86500867     0.20900
C1948       C  0.91733749  0.48918863  0.85331094    -0.02700
C1949       C  0.96131050  0.51715804  0.85203871    -0.05800
C1950       C  0.98905863  0.51599296  0.86231359     0.21100
C1951       C  0.97758268  0.54522952  0.84025530     0.19300
C1952       C  0.94958094  0.54513660  0.82990049    -0.17300
C1953       C  0.90603363  0.51703601  0.83105914    -0.19500
C1954       C  0.88959770  0.48870986  0.84266010     0.20800
C1955       C  0.84618811  0.45898758  0.84358658    -0.32500
C1956       C  0.83026268  0.43056774  0.85520360     0.01500
C1957       C  0.85779970  0.43213830  0.86598885    -0.23800
C1958       C  0.03274955  0.54186581  0.86052955    -0.28400
C1959       C  0.04933934  0.56909511  0.84864578     0.07200
C1960       C  0.02157968  0.57150293  0.83873756    -0.27100
H1961       H  0.99363327  0.48636308  0.88184838     0.11900
H1962       H  0.91745113  0.43872017  0.88425880     0.13000
H1963       H  0.96143203  0.56627534  0.82074807     0.12100
H1964       H  0.88523943  0.51712456  0.82277994     0.11300
H1965       H  0.82489749  0.45725421  0.83514808     0.16700
H1966       H  0.84554401  0.40955098  0.87475005     0.12600
H1967       H  0.05407924  0.53964451  0.86808797     0.15500
H1968       H  0.03425724  0.59172859  0.82937561     0.15300
C1969       C  0.12931572  0.62096165  0.78046095    -0.17600
C1970       C  0.14297527  0.61971818  0.76648426    -0.19800
C1971       C  0.18520599  0.63173914  0.76389363     0.20900
C1972       C  0.21413955  0.64573338  0.77549954    -0.02700
C1973       C  0.20015182  0.64626782  0.78967449    -0.05800
C1974       C  0.15748704  0.63371437  0.79215000     0.21100
C1975       C  0.22839106  0.65759024  0.80141673     0.19300
C1976       C  0.27069212  0.66973285  0.79880629    -0.17300
C1977       C  0.28477757  0.67014766  0.78473468    -0.19500
C1978       C  0.25669902  0.65786931  0.77301474     0.20800
C1979       C  0.27007578  0.65631717  0.75892972    -0.32500
C1980       C  0.24110836  0.64129221  0.74739450     0.01500
C1981       C  0.19874650  0.62904747  0.74997142    -0.23800
C1982       C  0.14314637  0.63168325  0.80633142    -0.28400
C1983       C  0.17042010  0.64032296  0.81813448     0.07200
C1984       C  0.21325783  0.65425627  0.81558213    -0.27100
H1985       H  0.09641487  0.61096372  0.78217657     0.11900
H1986       H  0.12036500  0.60894679  0.75770517     0.13000
H1987       H  0.29279987  0.67838100  0.80767887     0.12100
H1988       H  0.31748191  0.67926190  0.78305389     0.11300
H1989       H  0.30257065  0.66489374  0.75704097     0.16700
H1990       H  0.17630390  0.61716577  0.74112704     0.12600
H1991       H  0.10989221  0.61970530  0.80826325     0.15500
H1992       H  0.23410722  0.65993226  0.82466326     0.15300
C1993       C  0.19668260  0.81914735  0.84017993    -0.17600
C1994       C  0.18515208  0.77995657  0.83410503    -0.19800
C1995       C  0.15904677  0.74263153  0.84167024     0.20900
C1996       C  0.14482118  0.74499941  0.85557768    -0.02700
C1997       C  0.15640199  0.78472794  0.86171823    -0.05800
C1998       C  0.18213151  0.82181061  0.85390949     0.21100
C1999       C  0.14162078  0.78729375  0.87550562     0.19300
C2000       C  0.11616420  0.74989795  0.88318337    -0.17300
C2001       C  0.10507790  0.71057449  0.87717417    -0.19500
C2002       C  0.11904667  0.70776320  0.86332838     0.20800
C2003       C  0.10861291  0.66851295  0.85727410    -0.32500
C2004       C  0.12338639  0.66555970  0.84344074     0.01500
C2005       C  0.14778994  0.70318225  0.83565092    -0.23800
C2006       C  0.19140105  0.86089628  0.85958752    -0.28400
C2007       C  0.17504351  0.86427973  0.87301154     0.07200
C2008       C  0.15125068  0.82694373  0.88111256    -0.27100
H2009       H  0.21654822  0.84742992  0.83402879     0.11900
H2010       H  0.19666567  0.77885782  0.82346143     0.13000
H2011       H  0.10445664  0.75100982  0.89379075     0.12100
H2012       H  0.08538449  0.68229582  0.88334937     0.11300
H2013       H  0.09065082  0.64052784  0.86373805     0.16700
H2014       H  0.15923817  0.70215860  0.82503252     0.12600
H2015       H  0.20903252  0.88829169  0.85287917     0.15500
H2016       H  0.13883081  0.82824475  0.89152403     0.15300
C2017       C  0.38726037  0.16209321  0.27595510    -0.17600
C2018       C  0.41650454  0.18593224  0.28670694    -0.19800
C2019       C  0.45611900  0.18899199  0.28716952     0.20900
C2020       C  0.46705916  0.16931986  0.27630757    -0.02700
C2021       C  0.43791676  0.14609636  0.26526071    -0.05800
C2022       C  0.39734344  0.14138600  0.26536415     0.21100
C2023       C  0.44840687  0.12536425  0.25466803     0.19300
C2024       C  0.48827173  0.12896848  0.25498351    -0.17300
C2025       C  0.51688409  0.15144113  0.26604504    -0.19500
C2026       C  0.50626845  0.17106233  0.27687957     0.20800
C2027       C  0.53345154  0.19095309  0.28857290    -0.32500
C2028       C  0.52231248  0.20971129  0.29960391     0.01500
C2029       C  0.48420385  0.20975462  0.29862888    -0.23800
C2030       C  0.36662302  0.11347469  0.25559556    -0.28400
C2031       C  0.37627839  0.09092498  0.24561367     0.07200
C2032       C  0.41773843  0.09872693  0.24466472    -0.27100
H2033       H  0.35631293  0.15890784  0.27615732     0.11900
H2034       H  0.40760370  0.20084580  0.29494036     0.13000
H2035       H  0.49676264  0.11315485  0.24696175     0.12100
H2036       H  0.54697600  0.15270899  0.26630037     0.11300
H2037       H  0.56297098  0.19109318  0.28927355     0.16700
H2038       H  0.47539532  0.22383450  0.30719926     0.12600
H2039       H  0.33437008  0.10666562  0.25650757     0.15500
H2040       H  0.42476210  0.08039807  0.23720533     0.15300
C2041       C  0.25661838  0.83727931  0.18905671    -0.17600
C2042       C  0.25594797  0.87325891  0.19359270    -0.19800
C2043       C  0.29094153  0.90616620  0.20067679     0.20900
C2044       C  0.32778162  0.90369533  0.20253750    -0.02700
C2045       C  0.32811646  0.86700458  0.19825282    -0.05800
C2046       C  0.29207194  0.83330657  0.19171505     0.21100
C2047       C  0.36364245  0.86312245  0.20126998     0.19300
C2048       C  0.39939156  0.89681512  0.20772227    -0.17300
C2049       C  0.39929147  0.93335142  0.21178103    -0.19500
C2050       C  0.36329948  0.93663312  0.20956937     0.20800
C2051       C  0.36104853  0.97071245  0.21526466    -0.32500
C2052       C  0.32318177  0.97131074  0.21464019     0.01500
C2053       C  0.28872114  0.93987554  0.20689356    -0.23800
C2054       C  0.29132726  0.79548148  0.18867326    -0.28400
C2055       C  0.32564908  0.79052239  0.19253076     0.07200
C2056       C  0.36209912  0.82493425  0.19844216    -0.27100
H2057       H  0.22874634  0.81183051  0.18398350     0.11900
H2058       H  0.22753882  0.87474043  0.19197102     0.13000
H2059       H  0.42701626  0.89442870  0.21001313     0.12100
H2060       H  0.42679883  0.95837825  0.21716318     0.11300
H2061       H  0.38726258  0.99457050  0.22152973     0.16700
H2062       H  0.25933855  0.94006220  0.20664670     0.12600
H2063       H  0.26308272  0.76909677  0.18412425     0.15500
H2064       H  0.38888405  0.82156240  0.20124526     0.15300
C2065       C  0.10252015  0.06748890  0.12272912    -0.17600
C2066       C  0.07391574  0.04298857  0.11195039    -0.19800
C2067       C  0.08663873  0.02667919  0.10063529     0.20900
C2068       C  0.12802760  0.03342609  0.10050496    -0.02700
C2069       C  0.15720433  0.05903108  0.11119727    -0.05800
C2070       C  0.14446862  0.07664010  0.12222432     0.21100
C2071       C  0.19978425  0.06959403  0.11022318     0.19300
C2072       C  0.21196843  0.05165066  0.09925376    -0.17300
C2073       C  0.18269673  0.02512153  0.08891316    -0.19500
C2074       C  0.14100861  0.01687754  0.08919156     0.20800
C2075       C  0.11281279  0.99459917  0.07792691    -0.32500
C2076       C  0.07271038  0.99055409  0.07755328     0.01500
C2077       C  0.05942693  0.00569736  0.08906591    -0.23800
C2078       C  0.17461580  0.10598770  0.13178279    -0.28400
C2079       C  0.21755955  0.11992145  0.12989060     0.07200
C2080       C  0.22987746  0.10053989  0.11947271    -0.27100
H2081       H  0.09231047  0.08084315  0.13110806     0.11900
H2082       H  0.04216166  0.03779885  0.11224192     0.13000
H2083       H  0.24444658  0.05919258  0.09840243     0.12100
H2084       H  0.19315148  0.01259771  0.08032667     0.11300
H2085       H  0.12304132  0.98305629  0.06895654     0.16700
H2086       H  0.02829718  0.00216796  0.08878143     0.12600
H2087       H  0.16539410  0.12186611  0.13955273     0.15500
H2088       H  0.26314919  0.11205532  0.11780652     0.15300
C2089       C  0.35977757  0.38779795  0.17901102    -0.17600
C2090       C  0.35692571  0.35097879  0.17355362    -0.19800
C2091       C  0.31745615  0.31446297  0.17157492     0.20900
C2092       C  0.28054526  0.31435879  0.17583386    -0.02700
C2093       C  0.28337517  0.35174894  0.18114518    -0.05800
C2094       C  0.32317102  0.38885229  0.18246907     0.21100
C2095       C  0.24626953  0.35269989  0.18423197     0.19300
C2096       C  0.20691357  0.31555584  0.18295597    -0.17300
C2097       C  0.20412763  0.27843484  0.17780620    -0.19500
C2098       C  0.24064309  0.27789514  0.17376260     0.20800
C2099       C  0.23784369  0.24291723  0.16657187    -0.32500
C2100       C  0.27435215  0.24434847  0.16124268     0.01500
C2101       C  0.31406875  0.27936138  0.16433062    -0.23800
C2102       C  0.32550901  0.42684937  0.18643547    -0.28400
C2103       C  0.28853964  0.42852174  0.18854444     0.07200
C2104       C  0.24908192  0.39121761  0.18775295    -0.27100
H2105       H  0.39056972  0.41592942  0.18000386     0.11900
H2106       H  0.38555192  0.35151877  0.17039727     0.13000
H2107       H  0.17815294  0.31559695  0.18544288     0.12100
H2108       H  0.17326043  0.25066528  0.17638279     0.11300
H2109       H  0.20712989  0.21626915  0.16386739     0.16700
H2110       H  0.34204892  0.28074947  0.15993289     0.12600
H2111       H  0.35592626  0.45569244  0.18691797     0.15500
H2112       H  0.22058422  0.39252506  0.18941713     0.15300
C2113       C  0.27809450  0.15573568  0.20026130    -0.17600
C2114       C  0.29327331  0.13968735  0.21085290    -0.19800
C2115       C  0.30764951  0.11212788  0.20711428     0.20900
C2116       C  0.30751471  0.10125595  0.19254915    -0.02700
C2117       C  0.29249402  0.11777139  0.18182737    -0.05800
C2118       C  0.27736936  0.14482716  0.18571879     0.21100
C2119       C  0.29251083  0.10712013  0.16724430     0.19300
C2120       C  0.30730953  0.07989113  0.16349490    -0.17300
C2121       C  0.32162437  0.06305682  0.17413713    -0.19500
C2122       C  0.32173006  0.07339413  0.18872186     0.20800
C2123       C  0.33457373  0.05542740  0.19955961    -0.32500
C2124       C  0.33288291  0.06447260  0.21424298     0.01500
C2125       C  0.32050668  0.09400136  0.21777662    -0.23800
C2126       C  0.26242327  0.16106958  0.17501396    -0.28400
C2127       C  0.26410847  0.15233470  0.16031659     0.07200
C2128       C  0.27868422  0.12462734  0.15663407    -0.27100
H2129       H  0.26693670  0.17672724  0.20345075     0.11900
H2130       H  0.29320250  0.14837469  0.22201480     0.13000
H2131       H  0.30764820  0.07145456  0.15231993     0.12100
H2132       H  0.33238265  0.04173330  0.17096165     0.11300
H2133       H  0.34474745  0.03358996  0.19654539     0.16700
H2134       H  0.31820501  0.10101254  0.22895170     0.12600
H2135       H  0.25012246  0.18095562  0.17821471     0.15500
H2136       H  0.28109629  0.11802134  0.14542255     0.15300
C2137       C  0.38050443  0.95560976  0.37609354    -0.17600
C2138       C  0.40847988  0.99918073  0.37691826    -0.19800
C2139       C  0.42407220  0.02334119  0.36431426     0.20900
C2140       C  0.40998778  0.00365770  0.35074507    -0.02700
C2141       C  0.38097059  0.95985834  0.34992214    -0.05800
C2142       C  0.36706996  0.93549266  0.36265291     0.21100
C2143       C  0.36749261  0.94016325  0.33633474     0.19300
C2144       C  0.38244813  0.96438894  0.32373214    -0.17300
C2145       C  0.41177435  0.00756498  0.32454438    -0.19500
C2146       C  0.42624024  0.02735520  0.33798103     0.20800
C2147       C  0.45778560  0.07001431  0.33886616    -0.32500
C2148       C  0.47281409  0.08959211  0.35234617     0.01500
C2149       C  0.45482938  0.06638254  0.36502573    -0.23800
C2150       C  0.34178585  0.89132437  0.36165858    -0.28400
C2151       C  0.32941781  0.87161710  0.34811396     0.07200
C2152       C  0.34115461  0.89629871  0.33555314    -0.27100
H2153       H  0.37002716  0.93751160  0.38597559     0.11900
H2154       H  0.41894500  0.01377597  0.38742375     0.13000
H2155       H  0.37240873  0.94969739  0.31322255     0.12100
H2156       H  0.42373573  0.02533429  0.31464653     0.11300
H2157       H  0.47127704  0.08783452  0.32905709     0.16700
H2158       H  0.46651236  0.08120324  0.37544337     0.12600
H2159       H  0.33323161  0.87217536  0.37131902     0.15500
H2160       H  0.33231182  0.88092926  0.32510319     0.15300
C2161       C  0.23371870  0.64989751  0.29933033    -0.17600
C2162       C  0.23312502  0.63477619  0.28541558    -0.19800
C2163       C  0.24767083  0.66242675  0.27360751     0.20900
C2164       C  0.26077192  0.70532500  0.27572081    -0.02700
C2165       C  0.26014060  0.72033142  0.28970783    -0.05800
C2166       C  0.24807214  0.69278128  0.30164227     0.21100
C2167       C  0.27394333  0.76338225  0.29185032     0.19300
C2168       C  0.28701281  0.79072487  0.27996537    -0.17300
C2169       C  0.28859498  0.77606582  0.26617900    -0.19500
C2170       C  0.27645957  0.73365237  0.26399479     0.20800
C2171       C  0.28117766  0.71939279  0.25044035    -0.32500
C2172       C  0.26911805  0.67690124  0.24835809     0.01500
C2173       C  0.25108782  0.64834016  0.25986493    -0.23800
C2174       C  0.25311336  0.70912433  0.31569376    -0.28400
C2175       C  0.26878239  0.75233195  0.31787316     0.07200
C2176       C  0.27716786  0.77886502  0.30591907    -0.27100
H2177       H  0.22396245  0.62822521  0.30833468     0.11900
H2178       H  0.22277459  0.60171338  0.28397109     0.13000
H2179       H  0.29759822  0.82383996  0.28142107     0.12100
H2180       H  0.30024795  0.79814028  0.25727873     0.11300
H2181       H  0.29464033  0.74136222  0.24154484     0.16700
H2182       H  0.24189490  0.61557819  0.25830167     0.12600
H2183       H  0.24704245  0.68880278  0.32493350     0.15500
H2184       H  0.28995884  0.81233645  0.30763195     0.15300
C2185       C  0.04970305  0.90959955  0.42757880    -0.17600
C2186       C  0.04823341  0.89156641  0.41414890    -0.19800
C2187       C  0.03518805  0.84863451  0.41305713     0.20900
C2188       C  0.02559461  0.82407485  0.42570210    -0.02700
C2189       C  0.02592397  0.84196351  0.43920001    -0.05800
C2190       C  0.03737153  0.88478714  0.44009034     0.21100
C2191       C  0.01227314  0.81635992  0.45164030     0.19300
C2192       C  0.00145014  0.77399049  0.45067264    -0.17300
C2193       C  0.00196626  0.75647293  0.43733884    -0.19500
C2194       C  0.01275163  0.78091541  0.42474894     0.20800
C2195       C  0.00771711  0.76226448  0.41114800    -0.32500
C2196       C  0.01339115  0.78574957  0.39856305     0.01500
C2197       C  0.02850119  0.82912185  0.39952797    -0.23800
C2198       C  0.03392063  0.90135874  0.45330397    -0.28400
C2199       C  0.01735836  0.87512369  0.46540228     0.07200
C2200       C  0.00757738  0.83301395  0.46463736    -0.27100
H2201       H  0.05875115  0.94254352  0.42809455     0.11900
H2202       H  0.05603208  0.91090541  0.40456206     0.13000
H2203       H  0.99133934  0.75406514  0.46015465     0.12100
H2204       H  0.99214245  0.72333320  0.43678675     0.11300
H2205       H  0.99516177  0.72856070  0.41033039     0.16700
H2206       H  0.03220517  0.84692272  0.38977879     0.12600
H2207       H  0.04132579  0.93383700  0.45394557     0.15500
H2208       H  0.99521485  0.81300142  0.47406864     0.15300
C2209       C  0.90203939  0.58571883  0.33889408    -0.17600
C2210       C  0.87199354  0.54296457  0.33717909    -0.19800
C2211       C  0.85476755  0.51682419  0.34927563     0.20900
C2212       C  0.87022295  0.53315919  0.36316481    -0.02700
C2213       C  0.90120645  0.57603231  0.36486644    -0.05800
C2214       C  0.91576350  0.60283275  0.35271594     0.21100
C2215       C  0.91508204  0.59272929  0.37882437     0.19300
C2216       C  0.89978780  0.56605925  0.39085641    -0.17300
C2217       C  0.86866681  0.52373628  0.38918100    -0.19500
C2218       C  0.85271003  0.50742509  0.37544152     0.20800
C2219       C  0.81804144  0.46662311  0.37383576    -0.32500
C2220       C  0.80105952  0.45098612  0.36011387     0.01500
C2221       C  0.82072659  0.47545239  0.34782019    -0.23800
C2222       C  0.94095228  0.64657431  0.35472426    -0.28400
C2223       C  0.95211809  0.66333633  0.36868066     0.07200
C2224       C  0.94116182  0.63629018  0.38059687    -0.27100
H2225       H  0.91328346  0.60573040  0.32944888     0.11900
H2226       H  0.86078314  0.53081757  0.32643374     0.13000
H2227       H  0.91038873  0.57839245  0.40162675     0.12100
H2228       H  0.85594195  0.50418384  0.39867964     0.11300
H2229       H  0.80350151  0.44736716  0.38329488     0.16700
H2230       H  0.80786535  0.46324971  0.33721085     0.12600
H2231       H  0.94926692  0.66769517  0.34559371     0.15500
H2232       H  0.94952687  0.64957254  0.39136872     0.15300
C2233       C  0.09727586  0.68867280  0.36104347    -0.17600
C2234       C  0.13490766  0.69785588  0.35423598    -0.19800
C2235       C  0.16556346  0.73969020  0.35104302     0.20900
C2236       C  0.15819135  0.77258327  0.35464593    -0.02700
C2237       C  0.12018545  0.76330024  0.36152957    -0.05800
C2238       C  0.08962395  0.72116084  0.36476350     0.21100
C2239       C  0.11276410  0.79616435  0.36513537     0.19300
C2240       C  0.14333295  0.83797552  0.36187357    -0.17300
C2241       C  0.18111882  0.84719886  0.35515142    -0.19500
C2242       C  0.18894888  0.81476085  0.35152142     0.20800
C2243       C  0.22738184  0.82383744  0.34518394    -0.32500
C2244       C  0.23571368  0.79132621  0.34204040     0.01500
C2245       C  0.20396801  0.74921749  0.34471985    -0.23800
C2246       C  0.05163840  0.71214324  0.37139621    -0.28400
C2247       C  0.04314263  0.74455692  0.37451574     0.07200
C2248       C  0.07447270  0.78660893  0.37158577    -0.27100
H2249       H  0.07411260  0.65612722  0.36337733     0.11900
H2250       H  0.14015964  0.67222108  0.35154890     0.13000
H2251       H  0.13802163  0.86358887  0.36453146     0.12100
H2252       H  0.20432463  0.87975379  0.35285705     0.11300
H2253       H  0.25115723  0.85624937  0.34306508     0.16700
H2254       H  0.20999411  0.72379581  0.34260812     0.12600
H2255       H  0.02851887  0.67979708  0.37384990     0.15500
H2256       H  0.06823786  0.81189955  0.37366398     0.15300
C2257       C  0.17779208  0.21285214  0.00451796    -0.17600
C2258       C  0.20774705  0.25519095  0.00730195    -0.19800
C2259       C  0.22854280  0.26736388  0.02068132     0.20900
C2260       C  0.22003180  0.23635187  0.03119646    -0.02700
C2261       C  0.18916978  0.19375906  0.02849836    -0.05800
C2262       C  0.16765707  0.18193091  0.01512832     0.21100
C2263       C  0.17865216  0.16334687  0.03941290     0.19300
C2264       C  0.20018253  0.17528938  0.05265003    -0.17300
C2265       C  0.23109976  0.21727753  0.05524336    -0.19500
C2266       C  0.24077411  0.24817028  0.04469602     0.20800
C2267       C  0.26885647  0.29092216  0.04773793    -0.32500
C2268       C  0.27517794  0.32208413  0.03769193     0.01500
C2269       C  0.25571547  0.31012577  0.02407007    -0.23800
C2270       C  0.13543259  0.13976638  0.01284530    -0.28400
C2271       C  0.12375961  0.10983035  0.02395090     0.07200
C2272       C  0.14583055  0.12181699  0.03710742    -0.27100
H2273       H  0.16172200  0.20447675  0.99419316     0.11900
H2274       H  0.21400566  0.27856659  0.99908652     0.13000
H2275       H  0.19256600  0.15224477  0.06111161     0.12100
H2276       H  0.24661063  0.22578913  0.06566593     0.11300
H2277       H  0.28289450  0.30025282  0.05838177     0.16700
H2278       H  0.25989351  0.33428872  0.01645423     0.12600
H2279       H  0.11810978  0.13071882  0.00274969     0.15500
H2280       H  0.13683735  0.09876528  0.04566817     0.15300
C2281       C  0.34329150  0.42339960  0.10759872    -0.17600
C2282       C  0.34024775  0.44129023  0.12053823    -0.19800
C2283       C  0.34701688  0.48239747  0.12079290     0.20900
C2284       C  0.35894872  0.50647278  0.10799983    -0.02700
C2285       C  0.36162749  0.48822946  0.09488843    -0.05800
C2286       C  0.35281833  0.44615765  0.09464865     0.21100
C2287       C  0.37015411  0.51103830  0.08188841     0.19300
C2288       C  0.37857867  0.55277251  0.08225229    -0.17300
C2289       C  0.37683403  0.57116399  0.09527890    -0.19500
C2290       C  0.36611206  0.54798892  0.10816415     0.20800
C2291       C  0.36093346  0.56495507  0.12108927    -0.32500
C2292       C  0.34714796  0.54033244  0.13368493     0.01500
C2293       C  0.34069186  0.49929741  0.13349271    -0.23800
C2294       C  0.34977924  0.42634172  0.08135887    -0.28400
C2295       C  0.35367262  0.44745226  0.06830136     0.07200
C2296       C  0.36631323  0.49051606  0.06867801    -0.27100
H2297       H  0.33648783  0.39110684  0.10762783     0.11900
H2298       H  0.33147267  0.42253075  0.13028873     0.13000
H2299       H  0.38524748  0.57078916  0.07238335     0.12100
H2300       H  0.38253303  0.60308073  0.09519173     0.11300
H2301       H  0.36581811  0.59659234  0.12121892     0.16700
H2302       H  0.33047754  0.48047147  0.14324040     0.12600
H2303       H  0.33892528  0.39290480  0.08112960     0.15500
H2304       H  0.36837159  0.50660901  0.05865446     0.15300
C2305       C  0.54315167  0.29966849  0.94625913    -0.17600
C2306       C  0.54254178  0.31267270  0.96045280    -0.19800
C2307       C  0.56905643  0.35485970  0.96462715     0.20900
C2308       C  0.59598541  0.38429147  0.95424797    -0.02700
C2309       C  0.59716975  0.37099016  0.93998242    -0.05800
C2310       C  0.57068146  0.32844194  0.93596119     0.21100
C2311       C  0.62580608  0.40005477  0.92988802     0.19300
C2312       C  0.65227687  0.44223498  0.93400693    -0.17300
C2313       C  0.65075079  0.45547782  0.94802950    -0.19500
C2314       C  0.62292324  0.42674900  0.95824791     0.20800
C2315       C  0.62305890  0.43939411  0.97255392    -0.32500
C2316       C  0.59800564  0.40997755  0.98316976     0.01500
C2317       C  0.57062697  0.36777992  0.97909166    -0.23800
C2318       C  0.57324981  0.31519728  0.92189580    -0.28400
C2319       C  0.60279057  0.34376672  0.91189272     0.07200
C2320       C  0.62845174  0.38629743  0.91599005    -0.27100
H2321       H  0.52265571  0.26683469  0.94341626     0.11900
H2322       H  0.52165888  0.28955338  0.96822439     0.13000
H2323       H  0.67452211  0.46495841  0.92641136     0.12100
H2324       H  0.67190279  0.48812173  0.95095631     0.11300
H2325       H  0.64517972  0.47162948  0.97573510     0.16700
H2326       H  0.55216717  0.34477052  0.98728083     0.12600
H2327       H  0.55368507  0.28226883  0.91897744     0.15500
H2328       H  0.65125123  0.40866286  0.90842857     0.15300
C2329       C  0.73176702  0.60047285  0.04308834    -0.17600
C2330       C  0.76046925  0.64389060  0.04405920    -0.19800
C2331       C  0.76586275  0.67065099  0.03243896     0.20900
C2332       C  0.74051312  0.65370844  0.01999823    -0.02700
C2333       C  0.71066000  0.61003904  0.01918888    -0.05800
C2334       C  0.70737313  0.58309383  0.03058009     0.21100
C2335       C  0.68582357  0.59305194  0.00664490     0.19300
C2336       C  0.69019732  0.61999368  0.99522358    -0.17300
C2337       C  0.72039870  0.66300299  0.99588945    -0.19500
C2338       C  0.74629438  0.68002302  0.00809417     0.20800
C2339       C  0.77871576  0.72252165  0.00841613    -0.32500
C2340       C  0.80452394  0.73945120  0.02066639     0.01500
C2341       C  0.79715772  0.71365905  0.03280155    -0.23800
C2342       C  0.68181519  0.53916506  0.02886440    -0.28400
C2343       C  0.65875735  0.52201224  0.01606049     0.07200
C2344       C  0.65922387  0.54919031  0.00532859    -0.27100
H2345       H  0.72941538  0.58033583  0.05199027     0.11900
H2346       H  0.77949019  0.65632298  0.05372017     0.13000
H2347       H  0.67135193  0.60752047  0.98552915     0.12100
H2348       H  0.72410759  0.68281524  0.98671629     0.11300
H2349       H  0.78415496  0.74244373  0.99910296     0.16700
H2350       H  0.81716511  0.72662850  0.04223804     0.12600
H2351       H  0.68157713  0.51820615  0.03712479     0.15500
H2352       H  0.64195370  0.53601123  0.99537153     0.15300
C2353       C  0.41244310  0.38520752  0.00750526    -0.17600
C2354       C  0.45103209  0.39518483  0.00118573    -0.19800
C2355       C  0.48834480  0.41403366  0.00937599     0.20900
C2356       C  0.48630870  0.42211377  0.02418065    -0.02700
C2357       C  0.44725480  0.41176160  0.03059430    -0.05800
C2358       C  0.41030977  0.39369466  0.02216543     0.21100
C2359       C  0.44535794  0.42022693  0.04536232     0.19300
C2360       C  0.48246029  0.43818495  0.05364178    -0.17300
C2361       C  0.52103924  0.44837283  0.04731457    -0.19500
C2362       C  0.52330941  0.44081079  0.03257834     0.20800
C2363       C  0.56198181  0.45150328  0.02616438    -0.32500
C2364       C  0.56486639  0.44395684  0.01134009     0.01500
C2365       C  0.52752329  0.42487089  0.00305830    -0.23800
C2366       C  0.37211958  0.38559936  0.02840160    -0.28400
C2367       C  0.36979057  0.39493309  0.04305940     0.07200
C2368       C  0.40670794  0.41154582  0.05150918    -0.27100
H2369       H  0.38425870  0.37118310  0.00087188     0.11900
H2370       H  0.45173020  0.38848760  0.98984424     0.13000
H2371       H  0.48174920  0.44483545  0.06498840     0.12100
H2372       H  0.54923582  0.46252398  0.05394323     0.11300
H2373       H  0.58983654  0.46482589  0.03293110     0.16700
H2374       H  0.52895399  0.41839992  0.99174626     0.12600
H2375       H  0.34453677  0.37384706  0.02156985     0.15500
H2376       H  0.40569814  0.41836963  0.06278719     0.15300
C2377       C  0.17774576  0.57055677  0.59727676    -0.17600
C2378       C  0.16044157  0.55488334  0.58361776    -0.19800
C2379       C  0.13971071  0.51144161  0.58074733     0.20900
C2380       C  0.13511434  0.48340602  0.59194385    -0.02700
C2381       C  0.15337666  0.49931036  0.60565454    -0.05800
C2382       C  0.17515942  0.54314713  0.60829124     0.21100
C2383       C  0.15134992  0.47146617  0.61650777     0.19300
C2384       C  0.12950169  0.42791844  0.61379491    -0.17300
C2385       C  0.11099953  0.41214877  0.60030234    -0.19500
C2386       C  0.11428703  0.43965149  0.58922413     0.20800
C2387       C  0.09963639  0.42443572  0.57524190    -0.32500
C2388       C  0.10705570  0.45245456  0.56379851     0.01500
C2389       C  0.12598514  0.49579308  0.56669636    -0.23800
C2390       C  0.19526770  0.55887179  0.62168553    -0.28400
C2391       C  0.19498193  0.53141825  0.63234317     0.07200
C2392       C  0.17233238  0.48767722  0.62970269    -0.27100
H2393       H  0.19426273  0.60429055  0.59909459     0.11900
H2394       H  0.16414862  0.57687677  0.57518963     0.13000
H2395       H  0.12743235  0.40606509  0.62202732     0.12100
H2396       H  0.09519496  0.37847976  0.59839778     0.11300
H2397       H  0.08608753  0.39112908  0.57295064     0.16700
H2398       H  0.13253792  0.51747157  0.55784349     0.12600
H2399       H  0.21276740  0.59260474  0.62355772     0.15500
H2400       H  0.17152024  0.46621242  0.63787267     0.15300
C2401       C  0.03953173  0.25953331  0.50308606    -0.17600
C2402       C  0.02642685  0.21670303  0.50161061    -0.19800
C2403       C  0.01594225  0.19069654  0.51380977     0.20900
C2404       C  0.01743588  0.20778834  0.52758727    -0.02700
C2405       C  0.02958967  0.25071060  0.52903394    -0.05800
C2406       C  0.04167622  0.27697745  0.51676000     0.21100
C2407       C  0.03125694  0.26769129  0.54284006     0.19300
C2408       C  0.02060556  0.24171461  0.55503067    -0.17300
C2409       C  0.00936033  0.19947197  0.55362496    -0.19500
C2410       C  0.00809174  0.18236224  0.53998884     0.20800
C2411       C  0.99871466  0.14058683  0.53860039    -0.32500
C2412       C  0.99771538  0.12347678  0.52496752     0.01500
C2413       C  0.00531686  0.14832925  0.51255961    -0.23800
C2414       C  0.05744799  0.32046464  0.51849096    -0.28400
C2415       C  0.05981600  0.33751547  0.53226912     0.07200
C2416       C  0.04548504  0.31077532  0.54430670    -0.27100
H2417       H  0.04853701  0.27915187  0.49354118     0.11900
H2418       H  0.02550234  0.20415986  0.49095364     0.13000
H2419       H  0.02190868  0.25432953  0.56570230     0.12100
H2420       H  0.00212567  0.18028852  0.56323383     0.11300
H2421       H  0.99245944  0.12135175  0.54816206     0.16700
H2422       H  0.00483662  0.13526697  0.50202765     0.12600
H2423       H  0.06938781  0.34128930  0.50925286     0.15500
H2424       H  0.04845493  0.32417324  0.55496520     0.15300
C2425       C  0.86674422  0.65268709  0.53851098    -0.17600
C2426       C  0.85366325  0.60984604  0.53764275    -0.19800
C2427       C  0.86963020  0.59494572  0.52688291     0.20900
C2428       C  0.89988052  0.62363411  0.51708831    -0.02700
C2429       C  0.91280666  0.66694700  0.51787219    -0.05800
C2430       C  0.89591218  0.68139764  0.52860256     0.21100
C2431       C  0.94158726  0.69552133  0.50768285     0.19300
C2432       C  0.95817507  0.68063780  0.49710096    -0.17300
C2433       C  0.94551149  0.63773273  0.49637170    -0.19500
C2434       C  0.91586522  0.60881163  0.50616619     0.20800
C2435       C  0.90009590  0.56516911  0.50474874    -0.32500
C2436       C  0.86785215  0.53629939  0.51390189     0.01500
C2437       C  0.85405299  0.55161516  0.52526493    -0.23800
C2438       C  0.90781705  0.72413293  0.52909056    -0.28400
C2439       C  0.93561944  0.75252618  0.51881760     0.07200
C2440       C  0.95249513  0.73817739  0.50812044    -0.27100
H2441       H  0.85348385  0.66327231  0.54680059     0.11900
H2442       H  0.83039569  0.58820993  0.54523274     0.13000
H2443       H  0.98044936  0.70208248  0.48923068     0.12100
H2444       H  0.95815841  0.62701091  0.48791523     0.11300
H2445       H  0.91037029  0.55351939  0.49583067     0.16700
H2446       H  0.82913638  0.52947224  0.53230531     0.12600
H2447       H  0.89457586  0.73521744  0.53723691     0.15500
H2448       H  0.97391438  0.76016413  0.50016791     0.15300
C2449       C  0.74768526  0.29587478  0.45034150    -0.17600
C2450       C  0.76277398  0.31229014  0.46413818    -0.19800
C2451       C  0.78805320  0.35597339  0.46629579     0.20900
C2452       C  0.79982384  0.38322169  0.45429462    -0.02700
C2453       C  0.78385213  0.36672619  0.44041903    -0.05800
C2454       C  0.75708582  0.32286650  0.43846832     0.21100
C2455       C  0.79281247  0.39434748  0.42867182     0.19300
C2456       C  0.81956961  0.43786045  0.43068509    -0.17300
C2457       C  0.83586363  0.45412009  0.44435654    -0.19500
C2458       C  0.82536730  0.42719170  0.45628495     0.20800
C2459       C  0.83745148  0.44367652  0.47027080    -0.32500
C2460       C  0.82293894  0.41700122  0.48234742     0.01500
C2461       C  0.79932955  0.37310010  0.48028819    -0.23800
C2462       C  0.73847229  0.30707010  0.42488237    -0.28400
C2463       C  0.74515810  0.33477953  0.41340275     0.07200
C2464       C  0.77324424  0.37823556  0.41530119    -0.27100
H2465       H  0.72734149  0.26213178  0.44905815     0.11900
H2466       H  0.75364222  0.29085798  0.47319603     0.13000
H2467       H  0.82696378  0.45945705  0.42175795     0.12100
H2468       H  0.85543827  0.48793484  0.44569384     0.11300
H2469       H  0.85473323  0.47755050  0.47186914     0.16700
H2470       H  0.78741738  0.35257409  0.48960207     0.12600
H2471       H  0.71668059  0.27358932  0.42350770     0.15500
H2472       H  0.77881715  0.39969194  0.40645400     0.15300
C2473       C  0.94590282  0.47109640  0.54310826    -0.17600
C2474       C  0.97395308  0.45975276  0.54895809    -0.19800
C2475       C  0.99081144  0.44052360  0.54032284     0.20900
C2476       C  0.97931102  0.43295375  0.52560728    -0.02700
C2477       C  0.95127076  0.44476506  0.51966298    -0.05800
C2478       C  0.93430420  0.46366443  0.52847986     0.21100
C2479       C  0.93992882  0.43726285  0.50493856     0.19300
C2480       C  0.95697521  0.41832330  0.49627005    -0.17300
C2481       C  0.98466234  0.40663609  0.50214151    -0.19500
C2482       C  0.99590934  0.41371265  0.51679532     0.20800
C2483       C  0.02420912  0.40269613  0.52265903    -0.32500
C2484       C  0.03699922  0.41094023  0.53727733     0.01500
C2485       C  0.01945305  0.42943348  0.54606483    -0.23800
C2486       C  0.90514081  0.47368592  0.52263773    -0.28400
C2487       C  0.89240228  0.46513342  0.50802127     0.07200
C2488       C  0.91100565  0.44782897  0.49920553    -0.27100
H2489       H  0.93313772  0.48557582  0.55005780     0.11900
H2490       H  0.98241491  0.46598055  0.56025965     0.13000
H2491       H  0.94865021  0.41225146  0.48495347     0.12100
H2492       H  0.99731889  0.39203612  0.49519861     0.11300
H2493       H  0.03780353  0.38943217  0.51555340     0.16700
H2494       H  0.02864869  0.43594910  0.55728544     0.12600
H2495       H  0.89078306  0.48624481  0.52972094     0.15500
H2496       H  0.90227647  0.44154486  0.48795416     0.15300
C2497       C  0.73143054  0.59817169  0.83675822    -0.17600
C2498       C  0.72054768  0.55617178  0.83488136    -0.19800
C2499       C  0.69342640  0.52522990  0.84465455     0.20900
C2500       C  0.67513392  0.53623995  0.85597266    -0.02700
C2501       C  0.68568721  0.57860830  0.85774883    -0.05800
C2502       C  0.71509171  0.60982494  0.84836949     0.21100
C2503       C  0.66902410  0.59012187  0.86944390     0.19300
C2504       C  0.64010355  0.55870899  0.87876400    -0.17300
C2505       C  0.62989993  0.51672558  0.87707423    -0.19500
C2506       C  0.64827831  0.50542253  0.86598966     0.20800
C2507       C  0.64200349  0.46447427  0.86511586    -0.32500
C2508       C  0.66163290  0.45405085  0.85419411     0.01500
C2509       C  0.68593981  0.48397296  0.84371093    -0.23800
C2510       C  0.72997813  0.65238646  0.85135230    -0.28400
C2511       C  0.71610873  0.66424580  0.86361376     0.07200
C2512       C  0.68396414  0.63303289  0.87219289    -0.27100
H2513       H  0.75379613  0.62177969  0.82941183     0.11900
H2514       H  0.73459815  0.54816032  0.82609146     0.13000
H2515       H  0.62672393  0.56687618  0.88772472     0.12100
H2516       H  0.60876825  0.49336885  0.88474141     0.11300
H2517       H  0.62275896  0.44100851  0.87308552     0.16700
H2518       H  0.70080380  0.47565174  0.83526839     0.12600
H2519       H  0.75458430  0.67651379  0.84470072     0.15500
H2520       H  0.67344399  0.64218184  0.88171499     0.15300
C2521       C  0.83487933  0.89873622  0.92959950    -0.17600
C2522       C  0.81712771  0.88287851  0.91601575    -0.19800
C2523       C  0.79332375  0.83921800  0.91359997     0.20900
C2524       C  0.78523383  0.81134710  0.92522683    -0.02700
C2525       C  0.80407008  0.82730015  0.93881514    -0.05800
C2526       C  0.82971966  0.87118890  0.94092200     0.21100
C2527       C  0.79925640  0.79920678  0.95001079     0.19300
C2528       C  0.77327855  0.75566537  0.94788239    -0.17300
C2529       C  0.75404818  0.73989527  0.93451287    -0.19500
C2530       C  0.76090567  0.76739190  0.92301204     0.20800
C2531       C  0.74693723  0.75161560  0.90908771    -0.32500
C2532       C  0.75887938  0.77907356  0.89725799     0.01500
C2533       C  0.78046302  0.82283812  0.89960101    -0.23800
C2534       C  0.85140809  0.88657336  0.95404456    -0.28400
C2535       C  0.84890909  0.85854002  0.96485698     0.07200
C2536       C  0.82196761  0.81498701  0.96289484    -0.27100
H2537       H  0.85418202  0.93253090  0.93106448     0.11900
H2538       H  0.82328879  0.90475333  0.90726829     0.13000
H2539       H  0.76887220  0.73372489  0.95642531     0.12100
H2540       H  0.73534265  0.70608221  0.93298393     0.11300
H2541       H  0.73093121  0.71788742  0.90720446     0.16700
H2542       H  0.79008857  0.84395642  0.89043150     0.12600
H2543       H  0.87206491  0.92022236  0.95552665     0.15500
H2544       H  0.81933170  0.79332453  0.97130854     0.15300
C2545       C  0.50131512  0.78278128  0.78056990    -0.17600
C2546       C  0.48652332  0.76690126  0.76670351    -0.19800
C2547       C  0.45388317  0.72503530  0.76473258     0.20900
C2548       C  0.43667101  0.69859353  0.77686589    -0.02700
C2549       C  0.45134940  0.71479805  0.79091349    -0.05800
C2550       C  0.48358349  0.75722329  0.79277376     0.21100
C2551       C  0.43250742  0.68908797  0.80310252     0.19300
C2552       C  0.40022023  0.64704959  0.80111280    -0.17300
C2553       C  0.38613820  0.63083823  0.78721698    -0.19500
C2554       C  0.40380727  0.65642253  0.77500734     0.20800
C2555       C  0.38837170  0.64103758  0.76103350    -0.32500
C2556       C  0.40447668  0.66767371  0.74893583     0.01500
C2557       C  0.43735884  0.70956629  0.75090107    -0.23800
C2558       C  0.49587988  0.77395283  0.80678984    -0.28400
C2559       C  0.47570939  0.74913318  0.81899445     0.07200
C2560       C  0.44468113  0.70647080  0.81704060    -0.27100
H2561       H  0.52600118  0.81542154  0.78176593     0.11900
H2562       H  0.50021681  0.78761903  0.75751511     0.13000
H2563       H  0.38531732  0.62684373  0.81033397     0.12100
H2564       H  0.36078643  0.59846666  0.78603973     0.11300
H2565       H  0.36250205  0.60897415  0.75963201     0.16700
H2566       H  0.44969674  0.73027286  0.74163934     0.12600
H2567       H  0.51887813  0.80712503  0.80820046     0.15500
H2568       H  0.42834818  0.68751826  0.82638045     0.15300
C2569       C  0.53213306  0.94598790  0.87789603    -0.17600
C2570       C  0.54776570  0.98942351  0.87908046    -0.19800
C2571       C  0.57401169  0.01719047  0.86833957     0.20900
C2572       C  0.58616428  0.00112983  0.85662962    -0.02700
C2573       C  0.57112274  0.95735084  0.85560511    -0.05800
C2574       C  0.54288464  0.92953072  0.86604267     0.21100
C2575       C  0.58247488  0.94121664  0.84370616     0.19300
C2576       C  0.60981797  0.96913355  0.83321713    -0.17300
C2577       C  0.62405967  0.01230335  0.83408924    -0.19500
C2578       C  0.61172615  0.02849392  0.84557947     0.20800
C2579       C  0.62322997  0.07121496  0.84594244    -0.32500
C2580       C  0.61055740  0.08724704  0.85741038     0.01500
C2581       C  0.58693919  0.06036186  0.86878203    -0.23800
C2582       C  0.52383847  0.88573267  0.86393271    -0.28400
C2583       C  0.53298837  0.86939715  0.85160168     0.07200
C2584       C  0.56403725  0.89735290  0.84196308    -0.27100
H2585       H  0.51070841  0.92513543  0.88606737     0.11900
H2586       H  0.53820898  0.00113453  0.88817129     0.13000
H2587       H  0.61895448  0.95736907  0.82403292     0.12100
H2588       H  0.64399259  0.03291833  0.82558587     0.11300
H2589       H  0.64151483  0.09196657  0.83719158     0.16700
H2590       H  0.57686097  0.07263516  0.87757078     0.12600
H2591       H  0.49993822  0.86429045  0.87140683     0.15500
H2592       H  0.57084870  0.88499087  0.83237880     0.15300
C2593       C  0.60177116  0.73379390  0.83249019    -0.17600
C2594       C  0.62865893  0.72067639  0.83810865    -0.19800
C2595       C  0.64309573  0.73011672  0.85242361     0.20900
C2596       C  0.62946357  0.75200264  0.86125234    -0.02700
C2597       C  0.60281919  0.76577650  0.85551796    -0.05800
C2598       C  0.58905237  0.75686698  0.84104695     0.21100
C2599       C  0.59020773  0.78867867  0.86425955     0.19300
C2600       C  0.60356959  0.79697849  0.87869969    -0.17300
C2601       C  0.62969528  0.78312547  0.88439300    -0.19500
C2602       C  0.64323233  0.76103253  0.87571557     0.20800
C2603       C  0.67169962  0.74949969  0.88109336    -0.32500
C2604       C  0.68845228  0.73083990  0.87204705     0.01500
C2605       C  0.67254231  0.71994621  0.85781415    -0.23800
C2606       C  0.56240743  0.77064387  0.83545666    -0.28400
C2607       C  0.54869096  0.79280302  0.84419064     0.07200
C2608       C  0.56362780  0.80208094  0.85857068    -0.27100
H2609       H  0.59129072  0.72627490  0.82139421     0.11900
H2610       H  0.63866289  0.70365937  0.83118173     0.13000
H2611       H  0.59388232  0.81431463  0.88559783     0.12100
H2612       H  0.63994402  0.79038306  0.89551994     0.11300
H2613       H  0.68208445  0.75691234  0.89215650     0.16700
H2614       H  0.68510269  0.70616532  0.85049904     0.12600
H2615       H  0.55191851  0.76336582  0.82439645     0.15500
H2616       H  0.55288669  0.81794517  0.86571195     0.15300
C2617       C  0.10662014  0.31309559  0.67522379    -0.17600
C2618       C  0.06957182  0.27681955  0.67088465    -0.19800
C2619       C  0.03105399  0.27611032  0.67072976     0.20900
C2620       C  0.02935219  0.31143440  0.67574007    -0.02700
C2621       C  0.06664016  0.34778658  0.68036583    -0.05800
C2622       C  0.10562735  0.34903135  0.67964874     0.21100
C2623       C  0.06524765  0.38366022  0.68491913     0.19300
C2624       C  0.02647976  0.38244846  0.68520338    -0.17300
C2625       C  0.98969873  0.34678140  0.68028123    -0.19500
C2626       C  0.99097903  0.31150764  0.67521189     0.20800
C2627       C  0.95546775  0.27764865  0.66866348    -0.32500
C2628       C  0.95784158  0.24360285  0.66294432     0.01500
C2629       C  0.99498831  0.24205263  0.66462357    -0.23800
C2630       C  0.14308536  0.38674692  0.68271976    -0.28400
C2631       C  0.14194912  0.42290462  0.68679683     0.07200
C2632       C  0.10289488  0.42076831  0.68838377    -0.27100
H2633       H  0.13623108  0.31343244  0.67473838     0.11900
H2634       H  0.07134031  0.24990672  0.66709245     0.13000
H2635       H  0.02487768  0.40969168  0.68871248     0.12100
H2636       H  0.96048881  0.34726999  0.68004039     0.11300
H2637       H  0.92698074  0.27905999  0.66709831     0.16700
H2638       H  0.99692261  0.21612624  0.65988807     0.12600
H2639       H  0.17321179  0.38832986  0.68160572     0.15500
H2640       H  0.10202526  0.44877777  0.69142516     0.15300
C2641       C  0.84235041  0.03516906  0.58848576    -0.17600
C2642       C  0.83553351  0.05735523  0.59941194    -0.19800
C2643       C  0.86357488  0.07431611  0.61110396     0.20900
C2644       C  0.89786732  0.06732596  0.61210040    -0.02700
C2645       C  0.90531005  0.04574521  0.60088680    -0.05800
C2646       C  0.87764125  0.02997148  0.58894571     0.21100
C2647       C  0.94149041  0.04170940  0.60130629     0.19300
C2648       C  0.96857185  0.05719504  0.61329810    -0.17300
C2649       C  0.96091707  0.07806505  0.62447937    -0.19500
C2650       C  0.92628074  0.08425606  0.62381645     0.20800
C2651       C  0.92162009  0.11004370  0.63396681    -0.32500
C2652       C  0.89015472  0.12063926  0.63213835     0.01500
C2653       C  0.85999923  0.10101147  0.62112895    -0.23800
C2654       C  0.88652031  0.01058199  0.57746681    -0.28400
C2655       C  0.92351636  0.00810850  0.57751098     0.07200
C2656       C  0.95063565  0.02345167  0.58954606    -0.27100
H2657       H  0.82070024  0.02320354  0.57943567     0.11900
H2658       H  0.80896786  0.06229668  0.59849751     0.13000
H2659       H  0.99627877  0.05403690  0.61387338     0.12100
H2660       H  0.98304137  0.09079565  0.63338452     0.11300
H2661       H  0.94544999  0.12590747  0.64224533     0.16700
H2662       H  0.83616131  0.10972342  0.61958033     0.12600
H2663       H  0.86562713  0.99906596  0.56819877     0.15500
H2664       H  0.97899912  0.02134482  0.58970199     0.15300
C2665       C  0.51342664  0.88471638  0.71252904    -0.17600
C2666       C  0.55096381  0.91814759  0.71801668    -0.19800
C2667       C  0.58879927  0.91775028  0.71695488     0.20900
C2668       C  0.58919409  0.88396045  0.70991607    -0.02700
C2669       C  0.55133501  0.85055616  0.70407381    -0.05800
C2670       C  0.51315425  0.85055957  0.70569202     0.21100
C2671       C  0.55136045  0.81640383  0.69715728     0.19300
C2672       C  0.58943063  0.81629451  0.69601316    -0.17300
C2673       C  0.62675604  0.84890523  0.70211293    -0.19500
C2674       C  0.62693174  0.88266579  0.70927007     0.20800
C2675       C  0.66346987  0.91417700  0.71632444    -0.32500
C2676       C  0.66275823  0.94747508  0.72353811     0.01500
C2677       C  0.62570861  0.94958678  0.72342971    -0.23800
C2678       C  0.47509932  0.81570205  0.70098014    -0.28400
C2679       C  0.47450646  0.78089252  0.69443841     0.07200
C2680       C  0.51303784  0.78213156  0.69213830    -0.27100
H2681       H  0.48444282  0.88528175  0.71383154     0.11900
H2682       H  0.55018720  0.94383371  0.72343853     0.13000
H2683       H  0.59009801  0.79032246  0.69076760     0.12100
H2684       H  0.65534812  0.84734809  0.70143201     0.11300
H2685       H  0.69185230  0.91213243  0.71662531     0.16700
H2686       H  0.62493396  0.97471215  0.72928488     0.12600
H2687       H  0.44566996  0.81509937  0.70278348     0.15500
H2688       H  0.51288353  0.75522888  0.68730263     0.15300
C2689       C  0.63832150  0.13072149  0.76893311    -0.17600
C2690       C  0.64480165  0.10521521  0.75929002    -0.19800
C2691       C  0.68164590  0.10273491  0.76008152     0.20900
C2692       C  0.71320741  0.12789420  0.77022017    -0.02700
C2693       C  0.70684376  0.15398780  0.77985939    -0.05800
C2694       C  0.66864986  0.15437092  0.77949735     0.21100
C2695       C  0.73775716  0.17793545  0.79034628     0.19300
C2696       C  0.77532293  0.17677090  0.79075510    -0.17300
C2697       C  0.78132048  0.15045565  0.78137251    -0.19500
C2698       C  0.75005706  0.12513730  0.77131367     0.20800
C2699       C  0.75382010  0.09529252  0.76298208    -0.32500
C2700       C  0.72163078  0.06877016  0.75338920     0.01500
C2701       C  0.68639632  0.07375259  0.75155900    -0.23800
C2702       C  0.66064844  0.17671860  0.79012160    -0.28400
C2703       C  0.69057766  0.19915470  0.80098770     0.07200
C2704       C  0.72970676  0.20092244  0.80068552    -0.27100
H2705       H  0.60900797  0.13097525  0.76840106     0.11900
H2706       H  0.62031591  0.08629731  0.75153769     0.13000
H2707       H  0.79947099  0.19509394  0.79868453     0.12100
H2708       H  0.80992473  0.14897892  0.78227712     0.11300
H2709       H  0.78069063  0.09106626  0.76449815     0.16700
H2710       H  0.66117881  0.05272427  0.74434364     0.12600
H2711       H  0.63066730  0.17572995  0.79019082     0.15500
H2712       H  0.75286897  0.21809090  0.80903742     0.15300
C2713       C  0.76619383  0.06718150  0.67031428    -0.17600
C2714       C  0.73831447  0.04725263  0.68175817    -0.19800
C2715       C  0.75229935  0.05724285  0.69607729     0.20900
C2716       C  0.79483160  0.08785890  0.69886715    -0.02700
C2717       C  0.82309332  0.10778073  0.68729438    -0.05800
C2718       C  0.80863766  0.09733161  0.67297054     0.21100
C2719       C  0.86573855  0.13800743  0.69005354     0.19300
C2720       C  0.87966234  0.14823186  0.70439222    -0.17300
C2721       C  0.85169028  0.12848763  0.71585590    -0.19500
C2722       C  0.80926806  0.09814118  0.71319886     0.20800
C2723       C  0.78140900  0.07696779  0.72460632    -0.32500
C2724       C  0.73915776  0.04522686  0.72196126     0.01500
C2725       C  0.72475841  0.03635894  0.70761280    -0.23800
C2726       C  0.83657749  0.11766758  0.66152450    -0.28400
C2727       C  0.87916542  0.14845067  0.66405047     0.07200
C2728       C  0.89353851  0.15777734  0.67844909    -0.27100
H2729       H  0.75455630  0.05888848  0.65935972     0.11900
H2730       H  0.70582046  0.02381482  0.67940108     0.13000
H2731       H  0.91222619  0.17147896  0.70674693     0.12100
H2732       H  0.86333348  0.13673492  0.72681379     0.11300
H2733       H  0.79333688  0.08367532  0.73555693     0.16700
H2734       H  0.69241675  0.01247274  0.70538015     0.12600
H2735       H  0.82457074  0.11064246  0.65059077     0.15500
H2736       H  0.92615056  0.18061384  0.68071582     0.15300
loop_ 
_geom_bond_atom_site_label_1 
_geom_bond_atom_site_label_2 
_geom_bond_distance 
_geom_bond_site_symmetry_2 
_ccdc_geom_bond_type 
N1            C5   1.362   1_545  A
N1            C2   1.358       .  A
N1         C2724   1.449       .  S
C2            C3   1.379   1_545  A
C2         C2700   1.482       .  S
C3            C4   1.374       .  A
C3            H6   1.082       .  S
C4            C5   1.384       .  A
C4            H7   1.083       .  S
C5         C2676   1.481       .  S
N8           C12   1.362       .  A
N8            C9   1.363       .  A
N8         C2727   1.453       .  S
C9           C10   1.380       .  A
C9         C2652   1.480       .  S
C10          C11   1.368       .  A
C10          H13   1.083       .  S
C11          C12   1.381       .  A
C11          H14   1.083       .  S
C12        C2628   1.473       .  S
N15          C19   1.366       .  A
N15          C16   1.368       .  A
N15        C2607   1.457       .  S
C16          C17   1.382       .  A
C16        C2559   1.490       .  S
C17          C18   1.369       .  A
C17          H20   1.082       .  S
C18          C19   1.380       .  A
C18          H21   1.082       .  S
C19        C2583   1.491       .  S
N22          C26   1.361       .  A
N22          C23   1.364       .  A
N22        C2604   1.455       .  S
C23          C24   1.383       .  A
C23        C2532   1.477       .  S
C24          C25   1.368       .  A
C24          H27   1.083       .  S
C25          C26   1.380       .  A
C25          H28   1.082       .  S
C26        C2511   1.481       .  S
N29          C33   1.363       .  A
N29          C30   1.365       .  A
N29        C2487   1.455       .  S
C30          C31   1.382       .  A
C30        C2460   1.482       .  S
C31          C32   1.369       .  A
C31          H34   1.083       .  S
C32          C33   1.381       .  A
C32          H35   1.082       .  S
C33        C2436   1.487       .  S
N36          C40   1.362       .  A
N36          C37   1.363       .  A
N36        C2484   1.456       .  S
C37          C38   1.384       .  A
C37        C2388   1.483       .  S
C38          C39   1.369       .  A
C38          H41   1.083       .  S
C39          C40   1.377       .  A
C39          H42   1.082       .  S
C40        C2415   1.478       .  S
N43          C47   1.361       .  A
N43          C44   1.366   1_554  A
N43        C2364   1.457       .  S
C44          C45   1.387   1_556  A
C44        C2316   1.489       .  S
C45          C46   1.371       .  A
C45          H48   1.083   1_554  S
C46          C47   1.376       .  A
C46          H49   1.082       .  S
C47        C2343   1.485       .  S
N50          C54   1.364       .  A
N50          C51   1.368       .  A
N50        C2367   1.456       .  S
C51          C52   1.383       .  A
C51        C2295   1.483       .  S
C52          C53   1.366       .  A
C52          H55   1.083       .  S
C53          C54   1.378       .  A
C53          H56   1.082       .  S
C54        C2268   1.479       .  S
N57          C61   1.358   1_455  A
N57          C58   1.356   1_455  A
N57        C2247   1.448       .  S
C58          C59   1.380       .  A
C58        C2196   1.472   1_655  S
C59          C60   1.371       .  A
C59          H62   1.083       .  S
C60          C61   1.382       .  A
C60          H63   1.083       .  S
C61        C2223   1.470       .  S
N64          C68   1.360       .  A
N64          C65   1.358       .  A
N64        C2244   1.449       .  S
C65          C66   1.379       .  A
C65        C2175   1.479       .  S
C66          C67   1.373       .  A
C66          H69   1.082       .  S
C67          C68   1.383       .  A
C67          H70   1.083       .  S
C68        C2151   1.478       .  S
N71          C75   1.364       .  A
N71          C72   1.363       .  A
N71        C2127   1.454       .  S
C72          C73   1.380       .  A
C72        C2079   1.474       .  S
C73          C74   1.367       .  A
C73          H76   1.083       .  S
C74          C75   1.379       .  A
C74          H77   1.083       .  S
C75        C2100   1.477       .  S
N78          C82   1.362   1_545  A
N78          C79   1.360       .  A
N78        C2124   1.454       .  S
C79          C80   1.378       .  A
C79        C2031   1.474       .  S
C80          C81   1.367   1_545  A
C80          H83   1.083       .  S
C81          C82   1.383       .  A
C81          H84   1.083       .  S
C82        C2052   1.475       .  S
N85          C89   1.363       .  A
N85          C86   1.368       .  A
N85        C2004   1.461       .  S
C86          C87   1.383       .  A
C86        C1983   1.485       .  S
C87          C88   1.367       .  A
C87          H90   1.083       .  S
C88          C89   1.380       .  A
C88          H91   1.082       .  S
C89        C1959   1.486       .  S
N92          C96   1.367       .  A
N92          C93   1.368       .  A
N92        C2007   1.463       .  S
C93          C94   1.383       .  A
C93        C1932   1.485       .  S
C94          C95   1.367       .  A
C94          H97   1.083       .  S
C95          C96   1.377       .  A
C95          H98   1.082       .  S
C96        C1908   1.482       .  S
N99         C103   1.360       .  A
N99         C100   1.364       .  A
N99        C1884   1.450       .  S
C100        C101   1.384       .  A
C100       C1863   1.483       .  S
C101        C102   1.370       .  A
C101        H104   1.083       .  S
C102        C103   1.379       .  A
C102        H105   1.082       .  S
C103       C1836   1.484       .  S
N106        C110   1.363       .  A
N106        C107   1.365       .  A
N106       C1887   1.451       .  S
C107        C108   1.384       .  A
C107       C1788   1.489       .  S
C108        C109   1.370       .  A
C108        H111   1.083       .  S
C109        C110   1.378       .  A
C109        H112   1.082       .  S
C110       C1815   1.483       .  S
N113        C117   1.366       .  A
N113        C114   1.365       .  A
N113       C1764   1.455       .  S
C114        C115   1.380       .  A
C114       C1740   1.486       .  S
C115        C116   1.371       .  A
C115        H118   1.082       .  S
C116        C117   1.381       .  A
C116        H119   1.083       .  S
C117       C1716   1.487       .  S
N120        C124   1.361       .  A
N120        C121   1.360       .  A
N120       C1767   1.452       .  S
C121        C122   1.379       .  A
C121       C1671   1.478       .  S
C122        C123   1.370       .  A
C122        H125   1.082       .  S
C123        C124   1.383       .  A
C123        H126   1.083       .  S
C124       C1692   1.476       .  S
N127        C131   1.362   1_556  A
N127        C128   1.363       .  A
N127       C1644   1.450   1_556  S
C128        C129   1.383       .  A
C128       C1596   1.474       .  S
C129        C130   1.364       .  A
C129        H132   1.083       .  S
C130        C131   1.377   1_556  A
C130        H133   1.082       .  S
C131       C1620   1.474       .  S
N134        C138   1.364       .  A
N134        C135   1.365       .  A
N134       C1647   1.454       .  S
C135        C136   1.377       .  A
C135       C1575   1.483       .  S
C136        C137   1.367       .  A
C136        H139   1.082       .  S
C137        C138   1.384       .  A
C137        H140   1.083       .  S
C138       C1548   1.479       .  S
N141        C145   1.365       .  A
N141        C142   1.362       .  A
N141       C1524   1.456       .  S
C142        C143   1.380       .  A
C142       C1476   1.479       .  S
C143        C144   1.371       .  A
C143        H146   1.083       .  S
C144        C145   1.382       .  A
C144        H147   1.083       .  S
C145       C1503   1.486       .  S
N148        C152   1.365       .  A
N148        C149   1.366       .  A
N148       C1527   1.456       .  S
C149        C150   1.380       .  A
C149       C1452   1.485       .  S
C150        C151   1.367       .  A
C150        H153   1.082       .  S
C151        C152   1.381       .  A
C151        H154   1.083   1_455  S
C152       C1431   1.480   1_455  S
N155        C159   1.363       .  A
N155        C156   1.360       .  A
N155       C1404   1.450       .  S
C156        C157   1.380       .  A
C156       C1356   1.482       .  S
C157        C158   1.370       .  A
C157        H160   1.083       .  S
C158        C159   1.382       .  A
C158        H161   1.083       .  S
C159       C1383   1.480       .  S
N162        C166   1.360       .  A
N162        C163   1.361       .  A
N162       C1407   1.449   1_565  S
C163        C164   1.380       .  A
C163       C1311   1.480       .  S
C164        C165   1.370       .  A
C164        H167   1.083       .  S
C165        C166   1.382       .  A
C165        H168   1.082       .  S
C166       C1332   1.477       .  S
N169        C173   1.362       .  A
N169        C170   1.364       .  A
N169       C1287   1.456       .  S
C170        C171   1.382       .  A
C170       C1260   1.480       .  S
C171        C172   1.368       .  A
C171        H174   1.083       .  S
C172        C173   1.379       .  A
C172        H175   1.082       .  S
C173       C1239   1.480       .  S
N176        C180   1.362       .  A
N176        C177   1.367       .  A
N176       C1284   1.456       .  S
C177        C178   1.384       .  A
C177       C1215   1.484       .  S
C178        C179   1.369       .  A
C178        H181   1.083       .  S
C179        C180   1.378       .  A
C179        H182   1.083   1_565  S
C180       C1188   1.477       .  S
N183        C187   1.368       .  A
N183        C184   1.368       .  A
N183       C1164   1.460       .  S
C184        C185   1.382       .  A
C184       C1140   1.485       .  S
C185        C186   1.362       .  A
C185        H188   1.082       .  S
C186        C187   1.379       .  A
C186        H189   1.083       .  S
C187       C1116   1.480       .  S
N190        C194   1.364       .  A
N190        C191   1.364       .  A
N190       C1167   1.455   1_565  S
C191        C192   1.380       .  A
C191       C1092   1.482       .  S
C192        C193   1.369       .  A
C192        H195   1.083       .  S
C193        C194   1.382       .  A
C193        H196   1.083       .  S
C194       C1068   1.482       .  S
N197        C201   1.366       .  A
N197        C198   1.366       .  A
N197       C1047   1.458       .  S
C198        C199   1.380       .  A
C198        C996   1.483       .  S
C199        C200   1.365       .  A
C199        H202   1.083       .  S
C200        C201   1.381       .  A
C200        H203   1.083       .  S
C201       C1020   1.477       .  S
N204        C208   1.363       .  A
N204        C205   1.363       .  A
N204       C1044   1.456       .  S
C205        C206   1.380       .  A
C205        C948   1.479       .  S
C206        C207   1.368       .  A
C206        H209   1.083       .  S
C207        C208   1.381       .  A
C207        H210   1.083       .  S
C208        C975   1.478       .  S
N211        C215   1.364       .  A
N211        C212   1.365       .  A
N211        C924   1.454       .  S
C212        C213   1.383       .  A
C212        C876   1.484       .  S
C213        C214   1.369       .  A
C213        H216   1.083       .  S
C214        C215   1.379       .  A
C214        H217   1.082       .  S
C215        C900   1.480       .  S
N218        C222   1.368       .  A
N218        C219   1.370       .  A
N218        C927   1.455       .  S
C219        C220   1.382       .  A
C219        C855   1.486       .  S
C220        C221   1.364       .  A
C220        H223   1.083       .  S
C221        C222   1.380       .  A
C221        H224   1.082   1_655  S
C222        C831   1.491       .  S
N225        C229   1.364       .  A
N225        C226   1.365   1_554  A
N225        C804   1.456       .  S
C226        C227   1.381       .  A
C226        C780   1.483       .  S
C227        C228   1.367   1_556  A
C227        H230   1.083       .  S
C228        C229   1.381       .  A
C228        H231   1.083       .  S
C229        C759   1.477       .  S
N232        C236   1.365       .  A
N232        C233   1.363       .  A
N232        C807   1.455       .  S
C233        C234   1.379       .  A
C233        C711   1.482       .  S
C234        C235   1.369       .  A
C234        H237   1.083       .  S
C235        C236   1.382       .  A
C235        H238   1.083       .  S
C236        C732   1.484       .  S
N239        C243   1.371       .  A
N239        C240   1.369       .  A
N239        C687   1.465       .  S
C240        C241   1.382       .  A
C240        C636   1.492       .  S
C241        C242   1.365       .  A
C241        H244   1.083       .  S
C242        C243   1.380       .  A
C242        H245   1.083       .  S
C243        C663   1.485       .  S
N246        C250   1.369       .  A
N246        C247   1.366       .  A
N246        C684   1.463   1_655  S
C247        C248   1.380       .  A
C247        C591   1.486   1_655  S
C248        C249   1.369       .  A
C248        H251   1.083       .  S
C249        C250   1.382       .  A
C249        H252   1.083       .  S
C250        C612   1.486       .  S
O253        C264   1.294       .  A
O253       Eu289   2.474       .  S
O254        C265   1.295       .  A
O254       Eu288   2.482       .  S
O255        C266   1.295       .  A
O255       Eu261   2.487       .  S
O256        C267   1.297       .  A
O256       Eu261   2.495       .  S
O257        C267   1.291       .  A
O257       Eu291   2.460       .  S
O258        C266   1.294       .  A
O258       Eu290   2.477       .  S
O259        C265   1.290       .  A
O259       Eu261   2.454       .  S
O260        C264   1.293       .  A
O260       Eu261   2.467       .  S
Eu261       O271   2.368       .  S
Eu261       O263   2.355       .  S
Eu261       O262   2.359       .  S
Eu261       O269   2.369       .  S
O262       Eu291   2.359       .  S
O262       Eu288   2.362       .  S
O263       Eu289   2.353       .  S
O263       Eu290   2.349       .  S
C264       C2703   1.484       .  S
C265       C1956   1.474       .  S
C266       C1791   1.491       .  S
C267        C615   1.489       .  S
H268        O269   0.966       .  S
O269       Eu290   2.365       .  S
O269       Eu288   2.368       .  S
H270        O271   0.965       .  S
O271       Eu289   2.367       .  S
O271       Eu291   2.356       .  S
O272        C295   1.294       .  A
O272       Eu288   2.469       .  S
O273        C296   1.295       .  A
O273       Eu289   2.487       .  S
O274        C297   1.290       .  A
O274       Eu290   2.455       .  S
O275        C298   1.290       .  A
O275       Eu291   2.458       .  S
O276        C299   1.294       .  A
O276       Eu291   2.482       .  S
O277        C300   1.291       .  A
O277       Eu290   2.462       .  S
O278        C301   1.296       .  A
O278       Eu292   2.487       .  S
O279        C302   1.292       .  A
O279       Eu292   2.466       .  S
O280        C301   1.294       .  A
O280       Eu290   2.473       .  S
O281        C302   1.289       .  A
O281       Eu291   2.454       .  S
O282        C297   1.293       .  A
O282       Eu288   2.474       .  S
O283        C300   1.290       .  A
O283       Eu289   2.458       .  S
O284        C299   1.292       .  A
O284       Eu289   2.465       .  S
O285        C298   1.295       .  A
O285       Eu288   2.489       .  S
O286        C295   1.296       .  A
O286       Eu292   2.486       .  S
O287        C296   1.291       .  A
O287       Eu292   2.451       .  S
Eu288       O306   2.349       .  S
Eu288       O294   2.361       .  S
Eu289       O293   2.357       .  S
Eu289       O304   2.364       .  S
Eu290       O304   2.356       .  S
Eu290       O294   2.360       .  S
Eu291       O293   2.357       .  S
Eu291       O306   2.353       .  S
Eu292       O293   2.365       .  S
Eu292       O304   2.367       .  S
Eu292       O306   2.353       .  S
Eu292       O294   2.351       .  S
C295       C2319   1.495       .  S
C296       C1911   1.481       .  S
C297       C2508   1.471       .  S
C298        C783   1.478       .  S
C299       C2580   1.481       .  S
C300       C1143   1.467       .  S
C301        C660   1.496       .  S
C302       C1599   1.467       .  S
H303        O304   0.966       .  S
H305        O306   0.964       .  S
O307        C318   1.294       .  A
O307       Eu343   2.472   1_556  S
O308        C319   1.295       .  A
O308       Eu342   2.482   1_545  S
O309        C320   1.295       .  A
O309       Eu315   2.481       .  S
O310        C321   1.296   1_655  A
O310       Eu315   2.492   1_546  S
O311        C321   1.292       .  A
O311       Eu345   2.467   1_546  S
O312        C320   1.292       .  A
O312       Eu344   2.460       .  S
O313        C319   1.290       .  A
O313       Eu315   2.450   1_545  S
O314        C318   1.290       .  A
O314       Eu315   2.452   1_556  S
Eu315       O325   2.354   1_554  S
Eu315       O317   2.363       .  S
Eu315       O316   2.349       .  S
Eu315       O323   2.365       .  S
O316       Eu345   2.351   1_655  S
O316       Eu342   2.353       .  S
O317       Eu343   2.361       .  S
O317       Eu344   2.364       .  S
C318       C2535   1.479       .  S
C319        C756   1.482       .  S
C320       C1551   1.486       .  S
C321        C588   1.486       .  S
H322        O323   0.965       .  S
O323       Eu344   2.370       .  S
O323       Eu342   2.355       .  S
H324        O325   0.964       .  S
O325       Eu343   2.365   1_556  S
O325       Eu345   2.363   1_656  S
O326        C349   1.292       .  A
O326       Eu342   2.464   1_455  S
O327        C350   1.296       .  A
O327       Eu343   2.490       .  S
O328        C351   1.295       .  A
O328       Eu344   2.479       .  S
O329        C352   1.295       .  A
O329       Eu345   2.490   1_545  S
O330        C353   1.292       .  A
O330       Eu345   2.458   1_556  S
O331        C354   1.293       .  A
O331       Eu344   2.474       .  S
O332        C355   1.292       .  A
O332       Eu346   2.471   1_655  S
O333        C356   1.289       .  A
O333       Eu346   2.452       .  S
O334        C355   1.294       .  A
O334       Eu344   2.484       .  S
O335        C356   1.292       .  A
O335       Eu345   2.464       .  S
O336        C351   1.292       .  A
O336       Eu342   2.462       .  S
O337        C354   1.295       .  A
O337       Eu343   2.481       .  S
O338        C353   1.296   1_655  A
O338       Eu343   2.486   1_556  S
O339        C352   1.291       .  A
O339       Eu342   2.458   1_445  S
O340        C349   1.289       .  A
O340       Eu346   2.448       .  S
O341        C350   1.291       .  A
O341       Eu346   2.456   1_655  S
Eu342       O360   2.359   1_655  S
Eu342       O348   2.357       .  S
Eu343       O347   2.362   1_655  S
Eu343       O358   2.364       .  S
Eu344       O358   2.360       .  S
Eu344       O348   2.347       .  S
Eu345       O347   2.365       .  S
Eu345       O360   2.355       .  S
Eu346       O347   2.358       .  S
Eu346       O358   2.348   1_455  S
Eu346       O360   2.364       .  S
Eu346       O348   2.352   1_455  S
C349       C2076   1.469       .  S
C350        C735   1.484       .  S
C351       C1308   1.489       .  S
C352       C2271   1.481       .  S
C353       C1935   1.484       .  S
C354       C2340   1.482       .  S
C355        C852   1.486       .  S
C356       C1623   1.465       .  S
H357        O358   0.966       .  S
H359        O360   0.965       .  S
O361        C372   1.291       .  A
O361       Eu397   2.457       .  S
O362        C373   1.288       .  A
O362       Eu396   2.442       .  S
O363        C374   1.291       .  A
O363       Eu369   2.459       .  S
O364        C375   1.290       .  A
O364       Eu369   2.457       .  S
O365        C375   1.293       .  A
O365       Eu399   2.473       .  S
O366        C374   1.295       .  A
O366       Eu398   2.487       .  S
O367        C373   1.291       .  A
O367       Eu369   2.454       .  S
O368        C372   1.295       .  A
O368       Eu369   2.484       .  S
Eu369       O379   2.355       .  S
Eu369       O371   2.348       .  S
Eu369       O370   2.358       .  S
Eu369       O377   2.356       .  S
O370       Eu399   2.344       .  S
O370       Eu396   2.350       .  S
O371       Eu397   2.361       .  S
O371       Eu398   2.356       .  S
C372       C2463   1.484       .  S
C373       C1191   1.462       .  S
C374        C999   1.481       .  S
C375       C1428   1.478       .  S
H376        O377   0.965       .  S
O377       Eu398   2.357       .  S
O377       Eu396   2.362       .  S
H378        O379   0.967       .  S
O379       Eu397   2.363       .  S
O379       Eu399   2.358       .  S
O380        C403   1.289       .  A
O380       Eu396   2.443       .  S
O381        C404   1.297       .  A
O381       Eu397   2.497       .  S
O382        C405   1.293       .  A
O382       Eu398   2.471       .  S
O383        C406   1.291       .  A
O383       Eu399   2.462       .  S
O384        C407   1.289       .  A
O384       Eu399   2.449       .  S
O385        C408   1.295       .  A
O385       Eu398   2.475       .  S
O386        C409   1.294       .  A
O386       Eu400   2.478       .  S
O387        C410   1.293       .  A
O387       Eu400   2.469       .  S
O388        C409   1.294       .  A
O388       Eu398   2.476       .  S
O389        C410   1.293       .  A
O389       Eu399   2.469       .  S
O390        C405   1.292       .  A
O390       Eu396   2.461       .  S
O391        C408   1.295       .  A
O391       Eu397   2.482       .  S
O392        C407   1.294       .  A
O392       Eu397   2.472       .  S
O393        C406   1.293       .  A
O393       Eu396   2.477       .  S
O394        C403   1.293       .  A
O394       Eu400   2.473       .  S
O395        C404   1.287       .  A
O395       Eu400   2.434       .  S
Eu396       O414   2.337       .  S
Eu396       O402   2.358       .  S
Eu397       O401   2.355       .  S
Eu397       O412   2.360       .  S
Eu398       O412   2.369       .  S
Eu398       O402   2.363       .  S
Eu399       O401   2.362       .  S
Eu399       O414   2.356       .  S
Eu400       O401   2.363       .  S
Eu400       O412   2.364       .  S
Eu400       O414   2.351       .  S
Eu400       O402   2.352       .  S
C403       C2028   1.476       .  S
C404       C1236   1.478       .  S
C405       C2148   1.482       .  S
C406       C1359   1.478       .  S
C407       C2220   1.475       .  S
C408       C1743   1.489       .  S
C409       C1500   1.486       .  S
C410        C879   1.475       .  S
H411        O412   0.965       .  S
H413        O414   0.965       .  S
O415        C426   1.295       .  A
O415       Eu451   2.483       .  S
O416        C427   1.291       .  A
O416       Eu450   2.460       .  S
O417        C428   1.293       .  A
O417       Eu423   2.473       .  S
O418        C429   1.292       .  A
O418       Eu423   2.467       .  S
O419        C429   1.296       .  A
O419       Eu453   2.493       .  S
O420        C428   1.293       .  A
O420       Eu452   2.469       .  S
O421        C427   1.293       .  A
O421       Eu423   2.476       .  S
O422        C426   1.293       .  A
O422       Eu423   2.469       .  S
Eu423       O433   2.362       .  S
Eu423       O425   2.359       .  S
Eu423       O424   2.343       .  S
Eu423       O431   2.369       .  S
O424       Eu453   2.346       .  S
O424       Eu450   2.343       .  S
O425       Eu451   2.361       .  S
O425       Eu452   2.369       .  S
C426       C2679   1.489       .  S
C427       C1980   1.482       .  S
C428       C1071   1.480       .  S
C429       C2556   1.489       .  S
H430        O431   0.966       .  S
O431       Eu452   2.366       .  S
O431       Eu450   2.361       .  S
H432        O433   0.965       .  S
O433       Eu451   2.367       .  S
O433       Eu453   2.360       .  S
O434        C457   1.290       .  A
O434       Eu450   2.452       .  S
O435        C458   1.293       .  A
O435       Eu451   2.473       .  S
O436        C459   1.293       .  A
O436       Eu452   2.481       .  S
O437        C460   1.292       .  A
O437       Eu453   2.467       .  S
O438        C461   1.294       .  A
O438       Eu453   2.482       .  S
O439        C462   1.288       .  A
O439       Eu452   2.437       .  S
O440        C463   1.293       .  A
O440       Eu454   2.470       .  S
O441        C464   1.293       .  A
O441       Eu454   2.475       .  S
O442        C463   1.294       .  A
O442       Eu452   2.478       .  S
O443        C464   1.293       .  A
O443       Eu453   2.470       .  S
O444        C459   1.294       .  A
O444       Eu450   2.472       .  S
O445        C462   1.298       .  A
O445       Eu451   2.498       .  S
O446        C461   1.293       .  A
O446       Eu451   2.470       .  S
O447        C460   1.292       .  A
O447       Eu450   2.468       .  S
O448        C457   1.292       .  A
O448       Eu454   2.459       .  S
O449        C458   1.291       .  A
O449       Eu454   2.463       .  S
Eu450       O468   2.367       .  S
Eu450       O456   2.349       .  S
Eu451       O455   2.365       .  S
Eu451       O466   2.361       .  S
Eu452       O466   2.358       .  S
Eu452       O456   2.348       .  S
Eu453       O455   2.364       .  S
Eu453       O468   2.364       .  S
Eu454       O455   2.359       .  S
Eu454       O466   2.354       .  S
Eu454       O468   2.360       .  S
Eu454       O456   2.357       .  S
C457       C2631   1.473       .  S
C458       C1668   1.477       .  S
C459       C1812   1.488       .  S
C460        C639   1.473       .  S
C461       C1839   1.480       .  S
C462        C951   1.483       .  S
C463       C2391   1.491       .  S
C464       C1119   1.482       .  S
H465        O466   0.965       .  S
H467        O468   0.967       .  S
O469        C480   1.294       .  A
O469       Eu505   2.475       .  S
O470        C481   1.294       .  A
O470       Eu504   2.479       .  S
O471        C482   1.293       .  A
O471       Eu477   2.474       .  S
O472        C483   1.296       .  A
O472       Eu477   2.496       .  S
O473        C483   1.291       .  A
O473       Eu507   2.457       .  S
O474        C482   1.293       .  A
O474       Eu506   2.476       .  S
O475        C481   1.292       .  A
O475       Eu477   2.460       .  S
O476        C480   1.291       .  A
O476       Eu477   2.465       .  S
Eu477       O487   2.357       .  S
Eu477       O479   2.358       .  S
Eu477       O478   2.361       .  S
Eu477       O485   2.364       .  S
O478       Eu507   2.363       .  S
O478       Eu504   2.363       .  S
O479       Eu505   2.357       .  S
O479       Eu506   2.360       .  S
C480       C2292   1.480       .  S
C481       C1335   1.484       .  S
C482       C1572   1.480       .  S
C483        C903   1.485       .  S
H484        O485   0.966       .  S
O485       Eu506   2.363       .  S
O485       Eu504   2.357       .  S
H486        O487   0.965       .  S
O487       Eu505   2.359       .  S
O487       Eu507   2.361       .  S
O488        C511   1.294       .  A
O488       Eu504   2.476       .  S
O489        C512   1.295       .  A
O489       Eu505   2.480       .  S
O490        C513   1.291       .  A
O490       Eu506   2.461       .  S
O491        C514   1.293       .  A
O491       Eu507   2.470       .  S
O492        C515   1.293       .  A
O492       Eu507   2.472       .  S
O493        C516   1.292       .  A
O493       Eu506   2.467       .  S
O494        C517   1.292       .  A
O494       Eu508   2.473       .  S
O495        C518   1.291       .  A
O495       Eu508   2.459       .  S
O496        C517   1.293       .  A
O496       Eu506   2.476       .  S
O497        C518   1.296       .  A
O497       Eu507   2.491       .  S
O498        C513   1.294       .  A
O498       Eu504   2.469       .  S
O499        C516   1.294       .  A
O499       Eu505   2.475       .  S
O500        C515   1.293       .  A
O500       Eu505   2.470       .  S
O501        C514   1.293       .  A
O501       Eu504   2.467       .  S
O502        C511   1.291       .  A
O502       Eu508   2.461       .  S
O503        C512   1.292       .  A
O503       Eu508   2.460       .  S
Eu504       O522   2.359       .  S
Eu504       O510   2.360       .  S
Eu505       O509   2.362       .  S
Eu505       O520   2.361       .  S
Eu506       O520   2.357       .  S
Eu506       O510   2.358       .  S
Eu507       O509   2.357       .  S
Eu507       O522   2.354       .  S
Eu508       O509   2.359       .  S
Eu508       O520   2.360       .  S
Eu508       O522   2.355       .  S
Eu508       O510   2.355       .  S
C511       C2172   1.481       .  S
C512       C1380   1.487       .  S
C513       C2055   1.483       .  S
C514       C1263   1.480       .  S
C515       C2103   1.478       .  S
C516        C708   1.483       .  S
C517        C828   1.479       .  S
C518       C1455   1.486       .  S
H519        O520   0.966       .  S
H521        O522   0.965       .  S
O523        C534   1.294   1_545  A
O523       Eu559   2.477   1_655  S
O524        C535   1.295       .  A
O524       Eu558   2.482       .  S
O525        C536   1.293       .  A
O525       Eu531   2.466       .  S
O526        C537   1.293       .  A
O526       Eu531   2.472       .  S
O527        C537   1.294       .  A
O527       Eu561   2.478       .  S
O528        C536   1.293       .  A
O528       Eu560   2.467       .  S
O529        C535   1.290       .  A
O529       Eu531   2.445       .  S
O530        C534   1.294       .  A
O530       Eu531   2.480       .  S
Eu531       O541   2.356       .  S
Eu531       O533   2.351       .  S
Eu531       O532   2.356       .  S
Eu531       O539   2.372       .  S
O532       Eu561   2.356       .  S
O532       Eu558   2.367       .  S
O533       Eu559   2.362   1_665  S
O533       Eu560   2.362       .  S
C534       C2655   1.489   1_565  S
C535       C1695   1.479       .  S
C536       C1023   1.481       .  S
C537       C1860   1.482       .  S
H538        O539   0.966       .  S
O539       Eu560   2.361       .  S
O539       Eu558   2.358       .  S
H540        O541   0.965       .  S
O541       Eu559   2.353   1_665  S
O541       Eu561   2.363       .  S
O542        C565   1.291   1_655  A
O542       Eu558   2.460       .  S
O543        C566   1.295       .  A
O543       Eu559   2.484       .  S
O544        C567   1.294       .  A
O544       Eu560   2.473       .  S
O545        C568   1.294       .  A
O545       Eu561   2.481       .  S
O546        C569   1.294       .  A
O546       Eu561   2.478   1_455  S
O547        C570   1.291       .  A
O547       Eu560   2.458   1_545  S
O548        C571   1.292       .  A
O548       Eu562   2.463   1_545  S
O549        C572   1.292       .  A
O549       Eu562   2.465       .  S
O550        C571   1.293   1_655  A
O550       Eu560   2.471   1_545  S
O551        C572   1.293       .  A
O551       Eu561   2.467   1_455  S
O552        C567   1.298       .  A
O552       Eu558   2.504       .  S
O553        C570   1.293   1_455  A
O553       Eu559   2.465       .  S
O554        C569   1.294       .  A
O554       Eu559   2.473   1_565  S
O555        C568   1.292       .  A
O555       Eu558   2.465       .  S
O556        C565   1.290       .  A
O556       Eu562   2.455       .  S
O557        C566   1.292       .  A
O557       Eu562   2.461   1_545  S
Eu558       O576   2.366       .  S
Eu558       O564   2.356       .  S
Eu559       O563   2.356   1_545  S
Eu559       O574   2.358       .  S
Eu560       O574   2.360   1_665  S
Eu560       O564   2.354       .  S
Eu561       O563   2.357   1_655  S
Eu561       O576   2.361       .  S
Eu562       O563   2.353       .  S
Eu562       O574   2.351   1_565  S
Eu562       O576   2.358   1_455  S
Eu562       O564   2.356   1_455  S
C565       C2199   1.469       .  S
C566       C1719   1.486       .  S
C567       C1212   1.499       .  S
C568       C2439   1.477       .  S
C569       C1095   1.486       .  S
C570       C2412   1.477       .  S
C571       C1479   1.484       .  S
C572        C972   1.481       .  S
H573        O574   0.965       .  S
H575        O576   0.966   1_455  S
C577        C578   1.401       .  A
C577        C582   1.404       .  A
C577        H593   1.084       .  S
C578        C579   1.405       .  A
C578        H594   1.084       .  S
C579        C589   1.408       .  A
C579        C580   1.412       .  A
C580        C586   1.413       .  A
C580        C581   1.417       .  A
C581        C583   1.412       .  A
C581        C582   1.412       .  A
C582        C590   1.407       .  A
C583        C592   1.408       .  A
C583        C584   1.404       .  A
C584        C585   1.402       .  A
C584        H595   1.084       .  S
C585        C586   1.405       .  A
C585        H596   1.083   1_455  S
C586        C587   1.410       .  A
C587        C588   1.408       .  A
C587        H597   1.084   1_455  S
C588        C589   1.408       .  A
C589        H598   1.085       .  S
C590        C591   1.407       .  A
C590        H599   1.084       .  S
C591        C592   1.406       .  A
C592        H600   1.084       .  S
C601        C602   1.403       .  A
C601        C606   1.406       .  A
C601        H617   1.084       .  S
C602        C603   1.405       .  A
C602        H618   1.084       .  S
C603        C613   1.409       .  A
C603        C604   1.412       .  A
C604        C610   1.413       .  A
C604        C605   1.418       .  A
C605        C607   1.413       .  A
C605        C606   1.412       .  A
C606        C614   1.410       .  A
C607        C616   1.408       .  A
C607        C608   1.404       .  A
C608        C609   1.401       .  A
C608        H619   1.084       .  S
C609        C610   1.404       .  A
C609        H620   1.083       .  S
C610        C611   1.409       .  A
C611        C612   1.406       .  A
C611        H621   1.084       .  S
C612        C613   1.408       .  A
C613        H622   1.085       .  S
C614        C615   1.411       .  A
C614        H623   1.085       .  S
C615        C616   1.406       .  A
C616        H624   1.084       .  S
C625        C626   1.403       .  A
C625        C630   1.405       .  A
C625        H641   1.084       .  S
C626        C627   1.405       .  A
C626        H642   1.083       .  S
C627        C637   1.411       .  A
C627        C628   1.413       .  A
C628        C634   1.411       .  A
C628        C629   1.415       .  A
C629        C631   1.413       .  A
C629        C630   1.413       .  A
C630        C638   1.410       .  A
C631        C640   1.402       .  A
C631        C632   1.403       .  A
C632        C633   1.398       .  A
C632        H643   1.084       .  S
C633        C634   1.404       .  A
C633        H644   1.084       .  S
C634        C635   1.403       .  A
C635        C636   1.408       .  A
C635        H645   1.084       .  S
C636        C637   1.408       .  A
C637        H646   1.084       .  S
C638        C639   1.406       .  A
C638        H647   1.084       .  S
C639        C640   1.403       .  A
C640        H648   1.085       .  S
C649        C650   1.400       .  A
C649        C654   1.403       .  A
C649        H665   1.084       .  S
C650        C651   1.404       .  A
C650        H666   1.084       .  S
C651        C661   1.406       .  A
C651        C652   1.411       .  A
C652        C658   1.412       .  A
C652        C653   1.418       .  A
C653        C655   1.412       .  A
C653        C654   1.412       .  A
C654        C662   1.406       .  A
C655        C664   1.411       .  A
C655        C656   1.405       .  A
C656        C657   1.404       .  A
C656        H667   1.083       .  S
C657        C658   1.406       .  A
C657        H668   1.083       .  S
C658        C659   1.412       .  A
C659        C660   1.411       .  A
C659        H669   1.084       .  S
C660        C661   1.410       .  A
C661        H670   1.084       .  S
C662        C663   1.405       .  A
C662        H671   1.085       .  S
C663        C664   1.408       .  A
C664        H672   1.084       .  S
C673        C674   1.400       .  A
C673        C678   1.404       .  A
C673        H689   1.084       .  S
C674        C675   1.405       .  A
C674        H690   1.084       .  S
C675        C685   1.405       .  A
C675        C676   1.407       .  A
C676        C682   1.410       .  A
C676        C677   1.417       .  A
C677        C679   1.407       .  A
C677        C678   1.409       .  A
C678        C686   1.407       .  A
C679        C688   1.408       .  A
C679        C680   1.406       .  A
C680        C681   1.402       .  A
C680        H691   1.083       .  S
C681        C682   1.405       .  A
C681        H692   1.084       .  S
C682        C683   1.410       .  A
C683        C684   1.415       .  A
C683        H693   1.078       .  S
C684        C685   1.418       .  A
C685        H694   1.079       .  S
C686        C687   1.415       .  A
C686        H695   1.077       .  S
C687        C688   1.418       .  A
C688        H696   1.079       .  S
C697        C698   1.401       .  A
C697        C702   1.404       .  A
C697        H713   1.083       .  S
C698        C699   1.404       .  A
C698        H714   1.084       .  S
C699        C709   1.406       .  A
C699        C700   1.412       .  A
C700        C706   1.412       .  A
C700        C701   1.416       .  A
C701        C703   1.412       .  A
C701        C702   1.412       .  A
C702        C710   1.407       .  A
C703        C712   1.408       .  A
C703        C704   1.405       .  A
C704        C705   1.402       .  A
C704        H715   1.084       .  S
C705        C706   1.405       .  A
C705        H716   1.084       .  S
C706        C707   1.408       .  A
C707        C708   1.408       .  A
C707        H717   1.085       .  S
C708        C709   1.406       .  A
C709        H718   1.085       .  S
C710        C711   1.406       .  A
C710        H719   1.084       .  S
C711        C712   1.407       .  A
C712        H720   1.085       .  S
C721        C722   1.399       .  A
C721        C726   1.404       .  A
C721        H737   1.084       .  S
C722        C723   1.404   1_655  A
C722        H738   1.084       .  S
C723        C733   1.405       .  A
C723        C724   1.412       .  A
C724        C730   1.412       .  A
C724        C725   1.417       .  A
C725        C727   1.414       .  A
C725        C726   1.411   1_455  A
C726        C734   1.404       .  A
C727        C736   1.411       .  A
C727        C728   1.405       .  A
C728        C729   1.403       .  A
C728        H739   1.083   1_554  S
C729        C730   1.405       .  A
C729        H740   1.083   1_554  S
C730        C731   1.409       .  A
C731        C732   1.408       .  A
C731        H741   1.084       .  S
C732        C733   1.406       .  A
C733        H742   1.085       .  S
C734        C735   1.407       .  A
C734        H743   1.085       .  S
C735        C736   1.407   1_655  A
C736        H744   1.084   1_554  S
C745        C746   1.400       .  A
C745        C750   1.404   1_556  A
C745        H761   1.084       .  S
C746        C747   1.404   1_556  A
C746        H762   1.084       .  S
C747        C757   1.405       .  A
C747        C748   1.411       .  A
C748        C754   1.413       .  A
C748        C749   1.415       .  A
C749        C751   1.413       .  A
C749        C750   1.412       .  A
C750        C758   1.405   1_554  A
C751        C760   1.406       .  A
C751        C752   1.404       .  A
C752        C753   1.400       .  A
C752        H763   1.083       .  S
C753        C754   1.404       .  A
C753        H764   1.083       .  S
C754        C755   1.406       .  A
C755        C756   1.405       .  A
C755        H765   1.084       .  S
C756        C757   1.409       .  A
C757        H766   1.085   1_554  S
C758        C759   1.406   1_556  A
C758        H767   1.085       .  S
C759        C760   1.404       .  A
C760        H768   1.084       .  S
C769        C770   1.401       .  A
C769        C774   1.404       .  A
C769        H785   1.084       .  S
C770        C771   1.404       .  A
C770        H786   1.084       .  S
C771        C781   1.406       .  A
C771        C772   1.412       .  A
C772        C778   1.413       .  A
C772        C773   1.417       .  A
C773        C775   1.412       .  A
C773        C774   1.413       .  A
C774        C782   1.407       .  A
C775        C784   1.408       .  A
C775        C776   1.404       .  A
C776        C777   1.402       .  A
C776        H787   1.084       .  S
C777        C778   1.405       .  A
C777        H788   1.084       .  S
C778        C779   1.409       .  A
C779        C780   1.406       .  A
C779        H789   1.085       .  S
C780        C781   1.407       .  A
C781        H790   1.084       .  S
C782        C783   1.406       .  A
C782        H791   1.085       .  S
C783        C784   1.406       .  A
C784        H792   1.085       .  S
C793        C794   1.402       .  A
C793        C798   1.404       .  A
C793        H809   1.083       .  S
C794        C795   1.405       .  A
C794        H810   1.083       .  S
C795        C805   1.407       .  A
C795        C796   1.409       .  A
C796        C802   1.412       .  A
C796        C797   1.418       .  A
C797        C799   1.409   1_655  A
C797        C798   1.412       .  A
C798        C806   1.410   1_655  A
C799        C808   1.406       .  A
C799        C800   1.405       .  A
C800        C801   1.401       .  A
C800        H811   1.084       .  S
C801        C802   1.404   1_455  A
C801        H812   1.084       .  S
C802        C803   1.409       .  A
C803        C804   1.411       .  A
C803        H813   1.080       .  S
C804        C805   1.414       .  A
C805        H814   1.083       .  S
C806        C807   1.410       .  A
C806        H815   1.080   1_455  S
C807        C808   1.414       .  A
C808        H816   1.083       .  S
C817        C818   1.403       .  A
C817        C822   1.405       .  A
C817        H833   1.083   1_455  S
C818        C819   1.405       .  A
C818        H834   1.084       .  S
C819        C829   1.408       .  A
C819        C820   1.411       .  A
C820        C826   1.414       .  A
C820        C821   1.417       .  A
C821        C823   1.410       .  A
C821        C822   1.414       .  A
C822        C830   1.414   1_455  A
C823        C832   1.403       .  A
C823        C824   1.404       .  A
C824        C825   1.400       .  A
C824        H835   1.084       .  S
C825        C826   1.403       .  A
C825        H836   1.084       .  S
C826        C827   1.408       .  A
C827        C828   1.405       .  A
C827        H837   1.084       .  S
C828        C829   1.407       .  A
C829        H838   1.084       .  S
C830        C831   1.408       .  A
C830        H839   1.084       .  S
C831        C832   1.408   1_655  A
C832        H840   1.085       .  S
C841        C842   1.402       .  A
C841        C846   1.405       .  A
C841        H857   1.084       .  S
C842        C843   1.405       .  A
C842        H858   1.084       .  S
C843        C853   1.410       .  A
C843        C844   1.413       .  A
C844        C850   1.412       .  A
C844        C845   1.419       .  A
C845        C847   1.412       .  A
C845        C846   1.411       .  A
C846        C854   1.409       .  A
C847        C856   1.408       .  A
C847        C848   1.404       .  A
C848        C849   1.402       .  A
C848        H859   1.083       .  S
C849        C850   1.405       .  A
C849        H860   1.084       .  S
C850        C851   1.409       .  A
C851        C852   1.408       .  A
C851        H861   1.084       .  S
C852        C853   1.408       .  A
C853        H862   1.084       .  S
C854        C855   1.410       .  A
C854        H863   1.084       .  S
C855        C856   1.407       .  A
C856        H864   1.084       .  S
C865        C866   1.399       .  A
C865        C870   1.403       .  A
C865        H881   1.084       .  S
C866        C867   1.404       .  A
C866        H882   1.083       .  S
C867        C877   1.405       .  A
C867        C868   1.412       .  A
C868        C874   1.412       .  A
C868        C869   1.416       .  A
C869        C871   1.413       .  A
C869        C870   1.412       .  A
C870        C878   1.404       .  A
C871        C880   1.408       .  A
C871        C872   1.404       .  A
C872        C873   1.402       .  A
C872        H883   1.084       .  S
C873        C874   1.405       .  A
C873        H884   1.083       .  S
C874        C875   1.409       .  A
C875        C876   1.409       .  A
C875        H885   1.085       .  S
C876        C877   1.406       .  A
C877        H886   1.084       .  S
C878        C879   1.404       .  A
C878        H887   1.085       .  S
C879        C880   1.406       .  A
C880        H888   1.084       .  S
C889        C890   1.398       .  A
C889        C894   1.403       .  A
C889        H905   1.084       .  S
C890        C891   1.403       .  A
C890        H906   1.084       .  S
C891        C901   1.403       .  A
C891        C892   1.412       .  A
C892        C898   1.412       .  A
C892        C893   1.417       .  A
C893        C895   1.414       .  A
C893        C894   1.411       .  A
C894        C902   1.402       .  A
C895        C904   1.414       .  A
C895        C896   1.406       .  A
C896        C897   1.404       .  A
C896        H907   1.083       .  S
C897        C898   1.406       .  A
C897        H908   1.084       .  S
C898        C899   1.411       .  A
C899        C900   1.408       .  A
C899        H909   1.084       .  S
C900        C901   1.403       .  A
C901        H910   1.085       .  S
C902        C903   1.406       .  A
C902        H911   1.085       .  S
C903        C904   1.410       .  A
C904        H912   1.084       .  S
C913        C914   1.401       .  A
C913        C918   1.405       .  A
C913        H929   1.083       .  S
C914        C915   1.404       .  A
C914        H930   1.083       .  S
C915        C925   1.411       .  A
C915        C916   1.413       .  A
C916        C922   1.408       .  A
C916        C917   1.418       .  A
C917        C919   1.413       .  A
C917        C918   1.408       .  A
C918        C926   1.405       .  A
C919        C928   1.412       .  A
C919        C920   1.404       .  A
C920        C921   1.402       .  A
C920        H931   1.083       .  S
C921        C922   1.405       .  A
C921        H932   1.084       .  S
C922        C923   1.406       .  A
C923        C924   1.414       .  A
C923        H933   1.083       .  S
C924        C925   1.409       .  A
C925        H934   1.080       .  S
C926        C927   1.414       .  A
C926        H935   1.083       .  S
C927        C928   1.410       .  A
C928        H936   1.081       .  S
C937        C938   1.401       .  A
C937        C942   1.404       .  A
C937        H953   1.083       .  S
C938        C939   1.404       .  A
C938        H954   1.083       .  S
C939        C949   1.407       .  A
C939        C940   1.412       .  A
C940        C946   1.412       .  A
C940        C941   1.415       .  A
C941        C943   1.410       .  A
C941        C942   1.413       .  A
C942        C950   1.408       .  A
C943        C952   1.403       .  A
C943        C944   1.404       .  A
C944        C945   1.400       .  A
C944        H955   1.084       .  S
C945        C946   1.404       .  A
C945        H956   1.084       .  S
C946        C947   1.405       .  A
C947        C948   1.406       .  A
C947        H957   1.085       .  S
C948        C949   1.405       .  A
C949        H958   1.084       .  S
C950        C951   1.405       .  A
C950        H959   1.084       .  S
C951        C952   1.410       .  A
C952        H960   1.085       .  S
C961        C962   1.401       .  A
C961        C966   1.404       .  A
C961        H977   1.084       .  S
C962        C963   1.404       .  A
C962        H978   1.084       .  S
C963        C973   1.407       .  A
C963        C964   1.412       .  A
C964        C970   1.412       .  A
C964        C965   1.414       .  A
C965        C967   1.413       .  A
C965        C966   1.412       .  A
C966        C974   1.405       .  A
C967        C976   1.405       .  A
C967        C968   1.403       .  A
C968        C969   1.399       .  A
C968        H979   1.083   1_565  S
C969        C970   1.404       .  A
C969        H980   1.084   1_565  S
C970        C971   1.404       .  A
C971        C972   1.406       .  A
C971        H981   1.085       .  S
C972        C973   1.407       .  A
C973        H982   1.084       .  S
C974        C975   1.407       .  A
C974        H983   1.085       .  S
C975        C976   1.403       .  A
C976        H984   1.084       .  S
C985        C986   1.401   1_545  A
C985        C990   1.404       .  A
C985       H1001   1.084       .  S
C986        C987   1.405   1_565  A
C986       H1002   1.084       .  S
C987        C997   1.406   1_545  A
C987        C988   1.411       .  A
C988        C994   1.413       .  A
C988        C989   1.417       .  A
C989        C991   1.411       .  A
C989        C990   1.414       .  A
C990        C998   1.409       .  A
C991       C1000   1.406       .  A
C991        C992   1.404       .  A
C992        C993   1.401       .  A
C992       H1003   1.084       .  S
C993        C994   1.404       .  A
C993       H1004   1.083       .  S
C994        C995   1.409       .  A
C995        C996   1.406   1_545  A
C995       H1005   1.085       .  S
C996        C997   1.407       .  A
C997       H1006   1.084       .  S
C998        C999   1.407       .  A
C998       H1007   1.085       .  S
C999       C1000   1.406       .  A
C1000      H1008   1.085       .  S
C1009      C1010   1.399       .  A
C1009      C1014   1.403   1_545  A
C1009      H1025   1.084       .  S
C1010      C1011   1.404   1_545  A
C1010      H1026   1.084       .  S
C1011      C1021   1.404       .  A
C1011      C1012   1.411       .  A
C1012      C1018   1.413       .  A
C1012      C1013   1.415       .  A
C1013      C1015   1.411       .  A
C1013      C1014   1.412       .  A
C1014      C1022   1.405       .  A
C1015      C1024   1.405       .  A
C1015      C1016   1.404       .  A
C1016      C1017   1.401       .  A
C1016      H1027   1.084       .  S
C1017      C1018   1.404       .  A
C1017      H1028   1.083       .  S
C1018      C1019   1.408       .  A
C1019      C1020   1.405       .  A
C1019      H1029   1.084       .  S
C1020      C1021   1.405       .  A
C1021      H1030   1.085   1_565  S
C1022      C1023   1.406       .  A
C1022      H1031   1.084   1_565  S
C1023      C1024   1.408       .  A
C1024      H1032   1.084       .  S
C1033      C1034   1.402       .  A
C1033      C1038   1.405       .  A
C1033      H1049   1.083       .  S
C1034      C1035   1.405       .  A
C1034      H1050   1.084       .  S
C1035      C1045   1.407       .  A
C1035      C1036   1.409       .  A
C1036      C1042   1.412       .  A
C1036      C1037   1.419       .  A
C1037      C1039   1.409       .  A
C1037      C1038   1.412       .  A
C1038      C1046   1.412       .  A
C1039      C1048   1.407       .  A
C1039      C1040   1.405       .  A
C1040      C1041   1.401       .  A
C1040      H1051   1.083       .  S
C1041      C1042   1.404       .  A
C1041      H1052   1.084       .  S
C1042      C1043   1.409       .  A
C1043      C1044   1.410       .  A
C1043      H1053   1.080       .  S
C1044      C1045   1.414       .  A
C1045      H1054   1.082       .  S
C1046      C1047   1.412       .  A
C1046      H1055   1.081       .  S
C1047      C1048   1.414       .  A
C1048      H1056   1.083       .  S
C1057      C1058   1.400       .  A
C1057      C1062   1.404       .  A
C1057      H1073   1.084       .  S
C1058      C1059   1.404       .  A
C1058      H1074   1.083       .  S
C1059      C1069   1.406       .  A
C1059      C1060   1.412       .  A
C1060      C1066   1.412       .  A
C1060      C1061   1.415       .  A
C1061      C1063   1.412       .  A
C1061      C1062   1.412       .  A
C1062      C1070   1.405       .  A
C1063      C1072   1.407       .  A
C1063      C1064   1.405       .  A
C1064      C1065   1.401       .  A
C1064      H1075   1.084       .  S
C1065      C1066   1.404       .  A
C1065      H1076   1.084       .  S
C1066      C1067   1.405       .  A
C1067      C1068   1.407       .  A
C1067      H1077   1.085       .  S
C1068      C1069   1.406       .  A
C1069      H1078   1.084       .  S
C1070      C1071   1.405       .  A
C1070      H1079   1.084       .  S
C1071      C1072   1.408       .  A
C1072      H1080   1.085       .  S
C1081      C1082   1.403       .  A
C1081      C1086   1.405       .  A
C1081      H1097   1.084       .  S
C1082      C1083   1.405       .  A
C1082      H1098   1.084       .  S
C1083      C1093   1.409       .  A
C1083      C1084   1.412       .  A
C1084      C1090   1.413       .  A
C1084      C1085   1.417       .  A
C1085      C1087   1.412       .  A
C1085      C1086   1.413       .  A
C1086      C1094   1.411       .  A
C1087      C1096   1.405       .  A
C1087      C1088   1.404   1_565  A
C1088      C1089   1.400       .  A
C1088      H1099   1.084       .  S
C1089      C1090   1.404   1_545  A
C1089      H1100   1.083       .  S
C1090      C1091   1.407       .  A
C1091      C1092   1.405       .  A
C1091      H1101   1.084   1_565  S
C1092      C1093   1.407       .  A
C1093      H1102   1.085       .  S
C1094      C1095   1.409       .  A
C1094      H1103   1.084       .  S
C1095      C1096   1.407       .  A
C1096      H1104   1.085   1_565  S
C1105      C1106   1.401       .  A
C1105      C1110   1.404       .  A
C1105      H1121   1.084       .  S
C1106      C1107   1.405       .  A
C1106      H1122   1.084       .  S
C1107      C1117   1.408       .  A
C1107      C1108   1.413       .  A
C1108      C1114   1.411       .  A
C1108      C1109   1.416       .  A
C1109      C1111   1.413       .  A
C1109      C1110   1.411       .  A
C1110      C1118   1.406       .  A
C1111      C1120   1.408       .  A
C1111      C1112   1.404       .  A
C1112      C1113   1.400       .  A
C1112      H1123   1.083       .  S
C1113      C1114   1.403       .  A
C1113      H1124   1.084       .  S
C1114      C1115   1.404       .  A
C1115      C1116   1.404       .  A
C1115      H1125   1.084       .  S
C1116      C1117   1.408       .  A
C1117      H1126   1.085       .  S
C1118      C1119   1.407       .  A
C1118      H1127   1.085       .  S
C1119      C1120   1.406       .  A
C1120      H1128   1.084       .  S
C1129      C1130   1.401       .  A
C1129      C1134   1.404       .  A
C1129      H1145   1.083       .  S
C1130      C1131   1.404       .  A
C1130      H1146   1.083       .  S
C1131      C1141   1.408       .  A
C1131      C1132   1.413       .  A
C1132      C1138   1.410       .  A
C1132      C1133   1.413       .  A
C1133      C1135   1.413       .  A
C1133      C1134   1.413       .  A
C1134      C1142   1.406       .  A
C1135      C1144   1.402       .  A
C1135      C1136   1.403       .  A
C1136      C1137   1.399       .  A
C1136      H1147   1.084       .  S
C1137      C1138   1.404       .  A
C1137      H1148   1.084       .  S
C1138      C1139   1.402       .  A
C1139      C1140   1.408       .  A
C1139      H1149   1.085       .  S
C1140      C1141   1.405       .  A
C1141      H1150   1.084       .  S
C1142      C1143   1.403       .  A
C1142      H1151   1.084       .  S
C1143      C1144   1.403       .  A
C1144      H1152   1.085       .  S
C1153      C1154   1.402       .  A
C1153      C1158   1.405       .  A
C1153      H1169   1.084       .  S
C1154      C1155   1.406       .  A
C1154      H1170   1.083       .  S
C1155      C1165   1.408       .  A
C1155      C1156   1.409       .  A
C1156      C1162   1.410       .  A
C1156      C1157   1.416       .  A
C1157      C1159   1.409       .  A
C1157      C1158   1.411       .  A
C1158      C1166   1.409       .  A
C1159      C1168   1.404       .  A
C1159      C1160   1.404       .  A
C1160      C1161   1.400       .  A
C1160      H1171   1.084       .  S
C1161      C1162   1.404       .  A
C1161      H1172   1.084       .  S
C1162      C1163   1.406       .  A
C1163      C1164   1.411       .  A
C1163      H1173   1.077       .  S
C1164      C1165   1.416       .  A
C1165      H1174   1.082       .  S
C1166      C1167   1.412       .  A
C1166      H1175   1.079   1_545  S
C1167      C1168   1.413       .  A
C1168      H1176   1.082       .  S
C1177      C1178   1.400       .  A
C1177      C1182   1.404       .  A
C1177      H1193   1.084       .  S
C1178      C1179   1.405       .  A
C1178      H1194   1.083       .  S
C1179      C1189   1.405   1_545  A
C1179      C1180   1.412       .  A
C1180      C1186   1.413   1_545  A
C1180      C1181   1.410       .  A
C1181      C1183   1.412       .  A
C1181      C1182   1.413       .  A
C1182      C1190   1.404       .  A
C1183      C1192   1.396       .  A
C1183      C1184   1.401       .  A
C1184      C1185   1.396       .  A
C1184      H1195   1.084       .  S
C1185      C1186   1.403   1_545  A
C1185      H1196   1.083   1_545  S
C1186      C1187   1.400       .  A
C1187      C1188   1.402       .  A
C1187      H1197   1.085       .  S
C1188      C1189   1.406       .  A
C1189      H1198   1.084       .  S
C1190      C1191   1.404       .  A
C1190      H1199   1.085       .  S
C1191      C1192   1.400       .  A
C1192      H1200   1.085       .  S
C1201      C1202   1.401       .  A
C1201      C1206   1.404       .  A
C1201      H1217   1.084       .  S
C1202      C1203   1.405       .  A
C1202      H1218   1.084       .  S
C1203      C1213   1.408       .  A
C1203      C1204   1.411       .  A
C1204      C1210   1.413       .  A
C1204      C1205   1.420       .  A
C1205      C1207   1.413       .  A
C1205      C1206   1.412       .  A
C1206      C1214   1.407       .  A
C1207      C1216   1.412       .  A
C1207      C1208   1.405       .  A
C1208      C1209   1.405       .  A
C1208      H1219   1.083       .  S
C1209      C1210   1.406       .  A
C1209      H1220   1.083       .  S
C1210      C1211   1.416       .  A
C1211      C1212   1.412       .  A
C1211      H1221   1.084       .  S
C1212      C1213   1.410       .  A
C1213      H1222   1.084       .  S
C1214      C1215   1.408       .  A
C1214      H1223   1.085       .  S
C1215      C1216   1.407       .  A
C1216      H1224   1.084       .  S
C1225      C1226   1.401       .  A
C1225      C1230   1.405       .  A
C1225      H1241   1.084       .  S
C1226      C1227   1.405       .  A
C1226      H1242   1.084       .  S
C1227      C1237   1.405       .  A
C1227      C1228   1.411       .  A
C1228      C1234   1.414       .  A
C1228      C1229   1.415       .  A
C1229      C1231   1.412       .  A
C1229      C1230   1.413       .  A
C1230      C1238   1.408       .  A
C1231      C1240   1.404       .  A
C1231      C1232   1.403       .  A
C1232      C1233   1.400       .  A
C1232      H1243   1.083       .  S
C1233      C1234   1.403       .  A
C1233      H1244   1.083       .  S
C1234      C1235   1.406       .  A
C1235      C1236   1.403       .  A
C1235      H1245   1.084       .  S
C1236      C1237   1.409       .  A
C1237      H1246   1.085       .  S
C1238      C1239   1.406       .  A
C1238      H1247   1.085       .  S
C1239      C1240   1.404       .  A
C1240      H1248   1.084       .  S
C1249      C1250   1.400       .  A
C1249      C1254   1.404       .  A
C1249      H1265   1.084       .  S
C1250      C1251   1.404       .  A
C1250      H1266   1.084       .  S
C1251      C1261   1.405       .  A
C1251      C1252   1.412       .  A
C1252      C1258   1.413       .  A
C1252      C1253   1.415       .  A
C1253      C1255   1.412       .  A
C1253      C1254   1.413       .  A
C1254      C1262   1.406       .  A
C1255      C1264   1.405       .  A
C1255      C1256   1.404       .  A
C1256      C1257   1.400       .  A
C1256      H1267   1.084       .  S
C1257      C1258   1.404       .  A
C1257      H1268   1.083       .  S
C1258      C1259   1.406       .  A
C1259      C1260   1.405       .  A
C1259      H1269   1.084       .  S
C1260      C1261   1.406       .  A
C1261      H1270   1.085       .  S
C1262      C1263   1.406       .  A
C1262      H1271   1.085       .  S
C1263      C1264   1.406       .  A
C1264      H1272   1.085       .  S
C1273      C1274   1.400       .  A
C1273      C1278   1.403       .  A
C1273      H1289   1.084       .  S
C1274      C1275   1.405       .  A
C1274      H1290   1.084       .  S
C1275      C1285   1.402       .  A
C1275      C1276   1.407       .  A
C1276      C1282   1.414       .  A
C1276      C1277   1.417       .  A
C1277      C1279   1.408       .  A
C1277      C1278   1.413       .  A
C1278      C1286   1.408       .  A
C1279      C1288   1.407       .  A
C1279      C1280   1.406       .  A
C1280      C1281   1.403       .  A
C1280      H1291   1.083       .  S
C1281      C1282   1.404       .  A
C1281      H1292   1.083       .  S
C1282      C1283   1.413       .  A
C1283      C1284   1.410       .  A
C1283      H1293   1.081       .  S
C1284      C1285   1.416       .  A
C1285      H1294   1.082       .  S
C1286      C1287   1.409       .  A
C1286      H1295   1.081       .  S
C1287      C1288   1.416       .  A
C1288      H1296   1.083       .  S
C1297      C1298   1.399       .  A
C1297      C1302   1.404       .  A
C1297      H1313   1.084       .  S
C1298      C1299   1.403       .  A
C1298      H1314   1.084       .  S
C1299      C1309   1.405       .  A
C1299      C1300   1.412       .  A
C1300      C1306   1.412   1_565  A
C1300      C1301   1.416       .  A
C1301      C1303   1.413   1_565  A
C1301      C1302   1.412       .  A
C1302      C1310   1.404       .  A
C1303      C1312   1.409       .  A
C1303      C1304   1.404       .  A
C1304      C1305   1.402       .  A
C1304      H1315   1.083       .  S
C1305      C1306   1.405       .  A
C1305      H1316   1.084       .  S
C1306      C1307   1.409   1_545  A
C1307      C1308   1.411       .  A
C1307      H1317   1.084   1_565  S
C1308      C1309   1.408       .  A
C1309      H1318   1.084       .  S
C1310      C1311   1.406       .  A
C1310      H1319   1.085       .  S
C1311      C1312   1.405   1_565  A
C1312      H1320   1.084       .  S
C1321      C1322   1.397       .  A
C1321      C1326   1.403       .  A
C1321      H1337   1.084       .  S
C1322      C1323   1.402       .  A
C1322      H1338   1.084       .  S
C1323      C1333   1.400       .  A
C1323      C1324   1.412       .  A
C1324      C1330   1.413       .  A
C1324      C1325   1.414       .  A
C1325      C1327   1.413       .  A
C1325      C1326   1.411       .  A
C1326      C1334   1.401       .  A
C1327      C1336   1.411       .  A
C1327      C1328   1.405       .  A
C1328      C1329   1.403       .  A
C1328      H1339   1.083       .  S
C1329      C1330   1.405       .  A
C1329      H1340   1.083       .  S
C1330      C1331   1.409       .  A
C1331      C1332   1.406       .  A
C1331      H1341   1.084       .  S
C1332      C1333   1.403       .  A
C1333      H1342   1.085       .  S
C1334      C1335   1.406       .  A
C1334      H1343   1.085       .  S
C1335      C1336   1.409       .  A
C1336      H1344   1.084       .  S
C1345      C1346   1.402       .  A
C1345      C1350   1.405       .  A
C1345      H1361   1.084       .  S
C1346      C1347   1.405       .  A
C1346      H1362   1.084       .  S
C1347      C1357   1.409       .  A
C1347      C1348   1.412       .  A
C1348      C1354   1.412       .  A
C1348      C1349   1.416       .  A
C1349      C1351   1.412       .  A
C1349      C1350   1.413       .  A
C1350      C1358   1.410       .  A
C1351      C1360   1.404       .  A
C1351      C1352   1.403       .  A
C1352      C1353   1.399       .  A
C1352      H1363   1.084       .  S
C1353      C1354   1.404       .  A
C1353      H1364   1.083       .  S
C1354      C1355   1.405       .  A
C1355      C1356   1.405       .  A
C1355      H1365   1.084       .  S
C1356      C1357   1.408       .  A
C1357      H1366   1.085       .  S
C1358      C1359   1.407       .  A
C1358      H1367   1.084       .  S
C1359      C1360   1.404       .  A
C1360      H1368   1.085       .  S
C1369      C1370   1.398       .  A
C1369      C1374   1.403   1_455  A
C1369      H1385   1.084   1_455  S
C1370      C1371   1.403       .  A
C1370      H1386   1.084       .  S
C1371      C1381   1.402       .  A
C1371      C1372   1.411       .  A
C1372      C1378   1.412       .  A
C1372      C1373   1.416   1_455  A
C1373      C1375   1.413       .  A
C1373      C1374   1.412       .  A
C1374      C1382   1.402       .  A
C1375      C1384   1.411       .  A
C1375      C1376   1.405       .  A
C1376      C1377   1.403   1_655  A
C1376      H1387   1.083       .  S
C1377      C1378   1.405       .  A
C1377      H1388   1.083       .  S
C1378      C1379   1.411       .  A
C1379      C1380   1.410       .  A
C1379      H1389   1.084       .  S
C1380      C1381   1.407       .  A
C1381      H1390   1.085       .  S
C1382      C1383   1.404       .  A
C1382      H1391   1.085       .  S
C1383      C1384   1.407       .  A
C1384      H1392   1.084       .  S
C1393      C1394   1.404       .  A
C1393      C1398   1.405       .  A
C1393      H1409   1.084       .  S
C1394      C1395   1.407       .  A
C1394      H1410   1.084       .  S
C1395      C1405   1.409       .  A
C1395      C1396   1.409       .  A
C1396      C1402   1.413       .  A
C1396      C1397   1.417       .  A
C1397      C1399   1.409       .  A
C1397      C1398   1.414       .  A
C1398      C1406   1.413       .  A
C1399      C1408   1.401       .  A
C1399      C1400   1.403       .  A
C1400      C1401   1.398       .  A
C1400      H1411   1.083       .  S
C1401      C1402   1.402       .  A
C1401      H1412   1.083       .  S
C1402      C1403   1.406       .  A
C1403      C1404   1.405       .  A
C1403      H1413   1.082       .  S
C1404      C1405   1.415       .  A
C1405      H1414   1.083       .  S
C1406      C1407   1.410       .  A
C1406      H1415   1.083       .  S
C1407      C1408   1.410       .  A
C1408      H1416   1.083       .  S
C1417      C1418   1.402       .  A
C1417      C1422   1.405       .  A
C1417      H1433   1.084       .  S
C1418      C1419   1.405       .  A
C1418      H1434   1.084       .  S
C1419      C1429   1.407       .  A
C1419      C1420   1.413       .  A
C1420      C1426   1.412       .  A
C1420      C1421   1.415       .  A
C1421      C1423   1.412       .  A
C1421      C1422   1.412       .  A
C1422      C1430   1.407       .  A
C1423      C1432   1.404       .  A
C1423      C1424   1.403       .  A
C1424      C1425   1.399       .  A
C1424      H1435   1.083       .  S
C1425      C1426   1.403       .  A
C1425      H1436   1.084       .  S
C1426      C1427   1.403       .  A
C1427      C1428   1.404       .  A
C1427      H1437   1.085       .  S
C1428      C1429   1.408       .  A
C1429      H1438   1.085       .  S
C1430      C1431   1.406       .  A
C1430      H1439   1.084       .  S
C1431      C1432   1.405       .  A
C1432      H1440   1.085   1_655  S
C1441      C1442   1.402       .  A
C1441      C1446   1.405       .  A
C1441      H1457   1.083       .  S
C1442      C1443   1.405       .  A
C1442      H1458   1.084       .  S
C1443      C1453   1.410       .  A
C1443      C1444   1.413       .  A
C1444      C1450   1.411       .  A
C1444      C1445   1.418       .  A
C1445      C1447   1.413       .  A
C1445      C1446   1.411       .  A
C1446      C1454   1.409       .  A
C1447      C1456   1.408       .  A
C1447      C1448   1.404       .  A
C1448      C1449   1.401       .  A
C1448      H1459   1.083       .  S
C1449      C1450   1.404       .  A
C1449      H1460   1.083       .  S
C1450      C1451   1.407       .  A
C1451      C1452   1.407       .  A
C1451      H1461   1.084       .  S
C1452      C1453   1.408       .  A
C1453      H1462   1.084       .  S
C1454      C1455   1.410       .  A
C1454      H1463   1.084       .  S
C1455      C1456   1.406       .  A
C1456      H1464   1.084       .  S
C1465      C1466   1.398       .  A
C1465      C1470   1.403       .  A
C1465      H1481   1.084       .  S
C1466      C1467   1.403       .  A
C1466      H1482   1.084       .  S
C1467      C1477   1.402       .  A
C1467      C1468   1.412       .  A
C1468      C1474   1.413       .  A
C1468      C1469   1.415       .  A
C1469      C1471   1.412       .  A
C1469      C1470   1.412       .  A
C1470      C1478   1.403       .  A
C1471      C1480   1.408       .  A
C1471      C1472   1.405       .  A
C1472      C1473   1.403       .  A
C1472      H1483   1.084       .  S
C1473      C1474   1.405       .  A
C1473      H1484   1.083       .  S
C1474      C1475   1.410       .  A
C1475      C1476   1.407       .  A
C1475      H1485   1.084       .  S
C1476      C1477   1.404       .  A
C1477      H1486   1.085       .  S
C1478      C1479   1.407       .  A
C1478      H1487   1.085       .  S
C1479      C1480   1.409       .  A
C1480      H1488   1.084       .  S
C1489      C1490   1.401       .  A
C1489      C1494   1.404       .  A
C1489      H1505   1.083       .  S
C1490      C1491   1.404       .  A
C1490      H1506   1.084       .  S
C1491      C1501   1.406       .  A
C1491      C1492   1.412       .  A
C1492      C1498   1.413       .  A
C1492      C1493   1.417       .  A
C1493      C1495   1.412       .  A
C1493      C1494   1.413       .  A
C1494      C1502   1.407       .  A
C1495      C1504   1.407       .  A
C1495      C1496   1.405       .  A
C1496      C1497   1.402       .  A
C1496      H1507   1.084       .  S
C1497      C1498   1.405       .  A
C1497      H1508   1.083       .  S
C1498      C1499   1.410       .  A
C1499      C1500   1.408       .  A
C1499      H1509   1.084       .  S
C1500      C1501   1.408       .  A
C1501      H1510   1.085       .  S
C1502      C1503   1.406       .  A
C1502      H1511   1.084       .  S
C1503      C1504   1.408       .  A
C1504      H1512   1.085       .  S
C1513      C1514   1.399       .  A
C1513      C1518   1.404       .  A
C1513      H1529   1.083       .  S
C1514      C1515   1.403       .  A
C1514      H1530   1.084       .  S
C1515      C1525   1.406       .  A
C1515      C1516   1.411       .  A
C1516      C1522   1.409       .  A
C1516      C1517   1.417       .  A
C1517      C1519   1.411       .  A
C1517      C1518   1.409       .  A
C1518      C1526   1.404       .  A
C1519      C1528   1.411       .  A
C1519      C1520   1.406       .  A
C1520      C1521   1.403       .  A
C1520      H1531   1.084       .  S
C1521      C1522   1.406       .  A
C1521      H1532   1.084       .  S
C1522      C1523   1.408       .  A
C1523      C1524   1.416       .  A
C1523      H1533   1.083       .  S
C1524      C1525   1.408       .  A
C1525      H1534   1.078       .  S
C1526      C1527   1.412       .  A
C1526      H1535   1.083       .  S
C1527      C1528   1.413       .  A
C1528      H1536   1.080       .  S
C1537      C1538   1.401       .  A
C1537      C1542   1.404       .  A
C1537      H1553   1.084   1_565  S
C1538      C1539   1.404       .  A
C1538      H1554   1.083   1_565  S
C1539      C1549   1.409       .  A
C1539      C1540   1.413       .  A
C1540      C1546   1.411       .  A
C1540      C1541   1.416       .  A
C1541      C1543   1.412       .  A
C1541      C1542   1.412       .  A
C1542      C1550   1.407       .  A
C1543      C1552   1.406       .  A
C1543      C1544   1.404       .  A
C1544      C1545   1.400       .  A
C1544      H1555   1.084       .  S
C1545      C1546   1.404       .  A
C1545      H1556   1.084       .  S
C1546      C1547   1.404       .  A
C1547      C1548   1.406       .  A
C1547      H1557   1.085       .  S
C1548      C1549   1.405       .  A
C1549      H1558   1.084       .  S
C1550      C1551   1.408       .  A
C1550      H1559   1.084       .  S
C1551      C1552   1.409       .  A
C1552      H1560   1.084       .  S
C1561      C1562   1.401       .  A
C1561      C1566   1.404       .  A
C1561      H1577   1.083       .  S
C1562      C1563   1.404       .  A
C1562      H1578   1.084       .  S
C1563      C1573   1.407       .  A
C1563      C1564   1.412       .  A
C1564      C1570   1.413       .  A
C1564      C1565   1.416       .  A
C1565      C1567   1.411       .  A
C1565      C1566   1.413       .  A
C1566      C1574   1.408       .  A
C1567      C1576   1.406       .  A
C1567      C1568   1.404       .  A
C1568      C1569   1.401       .  A
C1568      H1579   1.084       .  S
C1569      C1570   1.405       .  A
C1569      H1580   1.084       .  S
C1570      C1571   1.408       .  A
C1571      C1572   1.407       .  A
C1571      H1581   1.085       .  S
C1572      C1573   1.406       .  A
C1573      H1582   1.084       .  S
C1574      C1575   1.405       .  A
C1574      H1583   1.085       .  S
C1575      C1576   1.407       .  A
C1576      H1584   1.084       .  S
C1585      C1586   1.399       .  A
C1585      C1590   1.403       .  A
C1585      H1601   1.084       .  S
C1586      C1587   1.404       .  A
C1586      H1602   1.084       .  S
C1587      C1597   1.403       .  A
C1587      C1588   1.412       .  A
C1588      C1594   1.412       .  A
C1588      C1589   1.413       .  A
C1589      C1591   1.413       .  A
C1589      C1590   1.413       .  A
C1590      C1598   1.402       .  A
C1591      C1600   1.405       .  A
C1591      C1592   1.403       .  A
C1592      C1593   1.400       .  A
C1592      H1603   1.084       .  S
C1593      C1594   1.405       .  A
C1593      H1604   1.083       .  S
C1594      C1595   1.406       .  A
C1595      C1596   1.406       .  A
C1595      H1605   1.085       .  S
C1596      C1597   1.405       .  A
C1597      H1606   1.085       .  S
C1598      C1599   1.403       .  A
C1598      H1607   1.085       .  S
C1599      C1600   1.403       .  A
C1600      H1608   1.085       .  S
C1609      C1610   1.399       .  A
C1609      C1614   1.404   1_545  A
C1609      H1625   1.084       .  S
C1610      C1611   1.404       .  A
C1610      H1626   1.084       .  S
C1611      C1621   1.401       .  A
C1611      C1612   1.411   1_545  A
C1612      C1618   1.414       .  A
C1612      C1613   1.411       .  A
C1613      C1615   1.412       .  A
C1613      C1614   1.414       .  A
C1614      C1622   1.404       .  A
C1615      C1624   1.401       .  A
C1615      C1616   1.403   1_554  A
C1616      C1617   1.398       .  A
C1616      H1627   1.084       .  S
C1617      C1618   1.403   1_556  A
C1617      H1628   1.083       .  S
C1618      C1619   1.404       .  A
C1619      C1620   1.402   1_565  A
C1619      H1629   1.085   1_554  S
C1620      C1621   1.404       .  A
C1621      H1630   1.085       .  S
C1622      C1623   1.403       .  A
C1622      H1631   1.085       .  S
C1623      C1624   1.401       .  A
C1624      H1632   1.085       .  S
C1633      C1634   1.393       .  A
C1633      C1638   1.402       .  A
C1633      H1649   1.084       .  S
C1634      C1635   1.401       .  A
C1634      H1650   1.084   1_565  S
C1635      C1645   1.394   1_565  A
C1635      C1636   1.408       .  A
C1636      C1642   1.413       .  A
C1636      C1637   1.416       .  A
C1637      C1639   1.411       .  A
C1637      C1638   1.409       .  A
C1638      C1646   1.396       .  A
C1639      C1648   1.416       .  A
C1639      C1640   1.407       .  A
C1640      C1641   1.408       .  A
C1640      H1651   1.083       .  S
C1641      C1642   1.407       .  A
C1641      H1652   1.083   1_554  S
C1642      C1643   1.418   1_554  A
C1643      C1644   1.412   1_566  A
C1643      H1653   1.083       .  S
C1644      C1645   1.407       .  A
C1645      H1654   1.082       .  S
C1646      C1647   1.410       .  A
C1646      H1655   1.082       .  S
C1647      C1648   1.414       .  A
C1648      H1656   1.083       .  S
C1657      C1658   1.400       .  A
C1657      C1662   1.404       .  A
C1657      H1673   1.084       .  S
C1658      C1659   1.404       .  A
C1658      H1674   1.084       .  S
C1659      C1669   1.405       .  A
C1659      C1660   1.413       .  A
C1660      C1666   1.412       .  A
C1660      C1661   1.414       .  A
C1661      C1663   1.412       .  A
C1661      C1662   1.412       .  A
C1662      C1670   1.405       .  A
C1663      C1672   1.404       .  A
C1663      C1664   1.404       .  A
C1664      C1665   1.400       .  A
C1664      H1675   1.084       .  S
C1665      C1666   1.404       .  A
C1665      H1676   1.084       .  S
C1666      C1667   1.405       .  A
C1667      C1668   1.406       .  A
C1667      H1677   1.085       .  S
C1668      C1669   1.405       .  A
C1669      H1678   1.085       .  S
C1670      C1671   1.405       .  A
C1670      H1679   1.085       .  S
C1671      C1672   1.404       .  A
C1672      H1680   1.084       .  S
C1681      C1682   1.398       .  A
C1681      C1686   1.404       .  A
C1681      H1697   1.084       .  S
C1682      C1683   1.403       .  A
C1682      H1698   1.084       .  S
C1683      C1693   1.402       .  A
C1683      C1684   1.412       .  A
C1684      C1690   1.412       .  A
C1684      C1685   1.413       .  A
C1685      C1687   1.413       .  A
C1685      C1686   1.411       .  A
C1686      C1694   1.401       .  A
C1687      C1696   1.407       .  A
C1687      C1688   1.404       .  A
C1688      C1689   1.401       .  A
C1688      H1699   1.083       .  S
C1689      C1690   1.404       .  A
C1689      H1700   1.083       .  S
C1690      C1691   1.406       .  A
C1691      C1692   1.404       .  A
C1691      H1701   1.084       .  S
C1692      C1693   1.405       .  A
C1693      H1702   1.085       .  S
C1694      C1695   1.407       .  A
C1694      H1703   1.085       .  S
C1695      C1696   1.405       .  A
C1696      H1704   1.084       .  S
C1705      C1706   1.403       .  A
C1705      C1710   1.405       .  A
C1705      H1721   1.083       .  S
C1706      C1707   1.405       .  A
C1706      H1722   1.083       .  S
C1707      C1717   1.410       .  A
C1707      C1708   1.412       .  A
C1708      C1714   1.412       .  A
C1708      C1709   1.417       .  A
C1709      C1711   1.411       .  A
C1709      C1710   1.413       .  A
C1710      C1718   1.412       .  A
C1711      C1720   1.404       .  A
C1711      C1712   1.404       .  A
C1712      C1713   1.400       .  A
C1712      H1723   1.084       .  S
C1713      C1714   1.404       .  A
C1713      H1724   1.084       .  S
C1714      C1715   1.406       .  A
C1715      C1716   1.407       .  A
C1715      H1725   1.085       .  S
C1716      C1717   1.408       .  A
C1717      H1726   1.084       .  S
C1718      C1719   1.408       .  A
C1718      H1727   1.084       .  S
C1719      C1720   1.407       .  A
C1720      H1728   1.085       .  S
C1729      C1730   1.404       .  A
C1729      C1734   1.406       .  A
C1729      H1745   1.084       .  S
C1730      C1731   1.406       .  A
C1730      H1746   1.083       .  S
C1731      C1741   1.412       .  A
C1731      C1732   1.412       .  A
C1732      C1738   1.412       .  A
C1732      C1733   1.418       .  A
C1733      C1735   1.412       .  A
C1733      C1734   1.412       .  A
C1734      C1742   1.413       .  A
C1735      C1744   1.406       .  A
C1735      C1736   1.403       .  A
C1736      C1737   1.400       .  A
C1736      H1747   1.084       .  S
C1737      C1738   1.404       .  A
C1737      H1748   1.083       .  S
C1738      C1739   1.406       .  A
C1739      C1740   1.405       .  A
C1739      H1749   1.085       .  S
C1740      C1741   1.409       .  A
C1741      H1750   1.084       .  S
C1742      C1743   1.411       .  A
C1742      H1751   1.084       .  S
C1743      C1744   1.407       .  A
C1744      H1752   1.084       .  S
C1753      C1754   1.398       .  A
C1753      C1758   1.403       .  A
C1753      H1769   1.084       .  S
C1754      C1755   1.403       .  A
C1754      H1770   1.083       .  S
C1755      C1765   1.405       .  A
C1755      C1756   1.412       .  A
C1756      C1762   1.409       .  A
C1756      C1757   1.416       .  A
C1757      C1759   1.412       .  A
C1757      C1758   1.408       .  A
C1758      C1766   1.400       .  A
C1759      C1768   1.411       .  A
C1759      C1760   1.405       .  A
C1760      C1761   1.403       .  A
C1760      H1771   1.084       .  S
C1761      C1762   1.406       .  A
C1761      H1772   1.083       .  S
C1762      C1763   1.408       .  A
C1763      C1764   1.417       .  A
C1763      H1773   1.083       .  S
C1764      C1765   1.408       .  A
C1765      H1774   1.080       .  S
C1766      C1767   1.411       .  A
C1766      H1775   1.083       .  S
C1767      C1768   1.411       .  A
C1768      H1776   1.081       .  S
C1777      C1778   1.404       .  A
C1777      C1782   1.406       .  A
C1777      H1793   1.084       .  S
C1778      C1779   1.406       .  A
C1778      H1794   1.084       .  S
C1779      C1789   1.411       .  A
C1779      C1780   1.412       .  A
C1780      C1786   1.412       .  A
C1780      C1781   1.419       .  A
C1781      C1783   1.412       .  A
C1781      C1782   1.413       .  A
C1782      C1790   1.413       .  A
C1783      C1792   1.407       .  A
C1783      C1784   1.404       .  A
C1784      C1785   1.401       .  A
C1784      H1795   1.084       .  S
C1785      C1786   1.404       .  A
C1785      H1796   1.083       .  S
C1786      C1787   1.408       .  A
C1787      C1788   1.407       .  A
C1787      H1797   1.084       .  S
C1788      C1789   1.410       .  A
C1789      H1798   1.084       .  S
C1790      C1791   1.410       .  A
C1790      H1799   1.084       .  S
C1791      C1792   1.408       .  A
C1792      H1800   1.085       .  S
C1801      C1802   1.397       .  A
C1801      C1806   1.402   1_455  A
C1801      H1817   1.083   1_455  S
C1802      C1803   1.403       .  A
C1802      H1818   1.084       .  S
C1803      C1813   1.402       .  A
C1803      C1804   1.411       .  A
C1804      C1810   1.413       .  A
C1804      C1805   1.417   1_455  A
C1805      C1807   1.412       .  A
C1805      C1806   1.413       .  A
C1806      C1814   1.403       .  A
C1807      C1816   1.412       .  A
C1807      C1808   1.406       .  A
C1808      C1809   1.406   1_655  A
C1808      H1819   1.084       .  S
C1809      C1810   1.407       .  A
C1809      H1820   1.083       .  S
C1810      C1811   1.415       .  A
C1811      C1812   1.412       .  A
C1811      H1821   1.084       .  S
C1812      C1813   1.405       .  A
C1813      H1822   1.085       .  S
C1814      C1815   1.403       .  A
C1814      H1823   1.085       .  S
C1815      C1816   1.410       .  A
C1816      H1824   1.084       .  S
C1825      C1826   1.400       .  A
C1825      C1830   1.404       .  A
C1825      H1841   1.083       .  S
C1826      C1827   1.404       .  A
C1826      H1842   1.084       .  S
C1827      C1837   1.404       .  A
C1827      C1828   1.411       .  A
C1828      C1834   1.413       .  A
C1828      C1829   1.416       .  A
C1829      C1831   1.412       .  A
C1829      C1830   1.413       .  A
C1830      C1838   1.407       .  A
C1831      C1840   1.408       .  A
C1831      C1832   1.405       .  A
C1832      C1833   1.402       .  A
C1832      H1843   1.084       .  S
C1833      C1834   1.405       .  A
C1833      H1844   1.084       .  S
C1834      C1835   1.408       .  A
C1835      C1836   1.407       .  A
C1835      H1845   1.084       .  S
C1836      C1837   1.406       .  A
C1837      H1846   1.084       .  S
C1838      C1839   1.405       .  A
C1838      H1847   1.084       .  S
C1839      C1840   1.407       .  A
C1840      H1848   1.084       .  S
C1849      C1850   1.401       .  A
C1849      C1854   1.404       .  A
C1849      H1865   1.084       .  S
C1850      C1851   1.404       .  A
C1850      H1866   1.084       .  S
C1851      C1861   1.407       .  A
C1851      C1852   1.413       .  A
C1852      C1858   1.412       .  A
C1852      C1853   1.417       .  A
C1853      C1855   1.412       .  A
C1853      C1854   1.412       .  A
C1854      C1862   1.406       .  A
C1855      C1864   1.409       .  A
C1855      C1856   1.405       .  A
C1856      C1857   1.402       .  A
C1856      H1867   1.084       .  S
C1857      C1858   1.405       .  A
C1857      H1868   1.084       .  S
C1858      C1859   1.408       .  A
C1859      C1860   1.408       .  A
C1859      H1869   1.085       .  S
C1860      C1861   1.406       .  A
C1861      H1870   1.084       .  S
C1862      C1863   1.406       .  A
C1862      H1871   1.085       .  S
C1863      C1864   1.408       .  A
C1864      H1872   1.084       .  S
C1873      C1874   1.402       .  A
C1873      C1878   1.404       .  A
C1873      H1889   1.083       .  S
C1874      C1875   1.406       .  A
C1874      H1890   1.084       .  S
C1875      C1885   1.403       .  A
C1875      C1876   1.407       .  A
C1876      C1882   1.415       .  A
C1876      C1877   1.416       .  A
C1877      C1879   1.407       .  A
C1877      C1878   1.415       .  A
C1878      C1886   1.412       .  A
C1879      C1888   1.402       .  A
C1879      C1880   1.405       .  A
C1880      C1881   1.400       .  A
C1880      H1891   1.084       .  S
C1881      C1882   1.403       .  A
C1881      H1892   1.084       .  S
C1882      C1883   1.410       .  A
C1883      C1884   1.406       .  A
C1883      H1893   1.082       .  S
C1884      C1885   1.414       .  A
C1885      H1894   1.083       .  S
C1886      C1887   1.408       .  A
C1886      H1895   1.083       .  S
C1887      C1888   1.414       .  A
C1888      H1896   1.083       .  S
C1897      C1898   1.403       .  A
C1897      C1902   1.405       .  A
C1897      H1913   1.084       .  S
C1898      C1899   1.405       .  A
C1898      H1914   1.084       .  S
C1899      C1909   1.408   1_545  A
C1899      C1900   1.411       .  A
C1900      C1906   1.413       .  A
C1900      C1901   1.415       .  A
C1901      C1903   1.411       .  A
C1901      C1902   1.414       .  A
C1902      C1910   1.411       .  A
C1903      C1912   1.401       .  A
C1903      C1904   1.403       .  A
C1904      C1905   1.398       .  A
C1904      H1915   1.084       .  S
C1905      C1906   1.403       .  A
C1905      H1916   1.084       .  S
C1906      C1907   1.404   1_545  A
C1907      C1908   1.402       .  A
C1907      H1917   1.085       .  S
C1908      C1909   1.408       .  A
C1909      H1918   1.084       .  S
C1910      C1911   1.408       .  A
C1910      H1919   1.084       .  S
C1911      C1912   1.406       .  A
C1912      H1920   1.085       .  S
C1921      C1922   1.402       .  A
C1921      C1926   1.404       .  A
C1921      H1937   1.084   1_455  S
C1922      C1923   1.405       .  A
C1922      H1938   1.083   1_455  S
C1923      C1933   1.408       .  A
C1923      C1924   1.412       .  A
C1924      C1930   1.413       .  A
C1924      C1925   1.417       .  A
C1925      C1927   1.411       .  A
C1925      C1926   1.413       .  A
C1926      C1934   1.409       .  A
C1927      C1936   1.405       .  A
C1927      C1928   1.404       .  A
C1928      C1929   1.401       .  A
C1928      H1939   1.084       .  S
C1929      C1930   1.404       .  A
C1929      H1940   1.083       .  S
C1930      C1931   1.408       .  A
C1931      C1932   1.407       .  A
C1931      H1941   1.085       .  S
C1932      C1933   1.407       .  A
C1933      H1942   1.084       .  S
C1934      C1935   1.407       .  A
C1934      H1943   1.084   1_455  S
C1935      C1936   1.408       .  A
C1936      H1944   1.085       .  S
C1945      C1946   1.398       .  A
C1945      C1950   1.403       .  A
C1945      H1961   1.083       .  S
C1946      C1947   1.403       .  A
C1946      H1962   1.084       .  S
C1947      C1957   1.404       .  A
C1947      C1948   1.413       .  A
C1948      C1954   1.412       .  A
C1948      C1949   1.415       .  A
C1949      C1951   1.413       .  A
C1949      C1950   1.411       .  A
C1950      C1958   1.402   1_655  A
C1951      C1960   1.410   1_655  A
C1951      C1952   1.405       .  A
C1952      C1953   1.403       .  A
C1952      H1963   1.084       .  S
C1953      C1954   1.405       .  A
C1953      H1964   1.084       .  S
C1954      C1955   1.408       .  A
C1955      C1956   1.407       .  A
C1955      H1965   1.085       .  S
C1956      C1957   1.402       .  A
C1957      H1966   1.085       .  S
C1958      C1959   1.405       .  A
C1958      H1967   1.084       .  S
C1959      C1960   1.408       .  A
C1960      H1968   1.084       .  S
C1969      C1970   1.400       .  A
C1969      C1974   1.404       .  A
C1969      H1985   1.084       .  S
C1970      C1971   1.404       .  A
C1970      H1986   1.084       .  S
C1971      C1981   1.406       .  A
C1971      C1972   1.413       .  A
C1972      C1978   1.412       .  A
C1972      C1973   1.416       .  A
C1973      C1975   1.412       .  A
C1973      C1974   1.412       .  A
C1974      C1982   1.406       .  A
C1975      C1984   1.409       .  A
C1975      C1976   1.405       .  A
C1976      C1977   1.402       .  A
C1976      H1987   1.084       .  S
C1977      C1978   1.405       .  A
C1977      H1988   1.084       .  S
C1978      C1979   1.408       .  A
C1979      C1980   1.408       .  A
C1979      H1989   1.085       .  S
C1980      C1981   1.406       .  A
C1981      H1990   1.085       .  S
C1982      C1983   1.406       .  A
C1982      H1991   1.085       .  S
C1983      C1984   1.408       .  A
C1984      H1992   1.084       .  S
C1993      C1994   1.399       .  A
C1993      C1998   1.404       .  A
C1993      H2009   1.084       .  S
C1994      C1995   1.403       .  A
C1994      H2010   1.083       .  S
C1995      C2005   1.407       .  A
C1995      C1996   1.412       .  A
C1996      C2002   1.407       .  A
C1996      C1997   1.418       .  A
C1997      C1999   1.412       .  A
C1997      C1998   1.406       .  A
C1998      C2006   1.402       .  A
C1999      C2008   1.414       .  A
C1999      C2000   1.405       .  A
C2000      C2001   1.404       .  A
C2000      H2011   1.084       .  S
C2001      C2002   1.407       .  A
C2001      H2012   1.084       .  S
C2002      C2003   1.409       .  A
C2003      C2004   1.419       .  A
C2003      H2013   1.081       .  S
C2004      C2005   1.410       .  A
C2005      H2014   1.080       .  S
C2006      C2007   1.416       .  A
C2006      H2015   1.079       .  S
C2007      C2008   1.415       .  A
C2008      H2016   1.080       .  S
C2017      C2018   1.400       .  A
C2017      C2022   1.404       .  A
C2017      H2033   1.083       .  S
C2018      C2019   1.404       .  A
C2018      H2034   1.083       .  S
C2019      C2029   1.405       .  A
C2019      C2020   1.413       .  A
C2020      C2026   1.411       .  A
C2020      C2021   1.412       .  A
C2021      C2023   1.412       .  A
C2021      C2022   1.412       .  A
C2022      C2030   1.404       .  A
C2023      C2032   1.403       .  A
C2023      C2024   1.404       .  A
C2024      C2025   1.399       .  A
C2024      H2035   1.084       .  S
C2025      C2026   1.403       .  A
C2025      H2036   1.084       .  S
C2026      C2027   1.402       .  A
C2027      C2028   1.407       .  A
C2027      H2037   1.085       .  S
C2028      C2029   1.405       .  A
C2029      H2038   1.084       .  S
C2030      C2031   1.404       .  A
C2030      H2039   1.084       .  S
C2031      C2032   1.404       .  A
C2032      H2040   1.085       .  S
C2041      C2042   1.401       .  A
C2041      C2046   1.405       .  A
C2041      H2057   1.084       .  S
C2042      C2043   1.404       .  A
C2042      H2058   1.083       .  S
C2043      C2053   1.407       .  A
C2043      C2044   1.413       .  A
C2044      C2050   1.411       .  A
C2044      C2045   1.413       .  A
C2045      C2047   1.412       .  A
C2045      C2046   1.412       .  A
C2046      C2054   1.407       .  A
C2047      C2056   1.402       .  A
C2047      C2048   1.403       .  A
C2048      C2049   1.398       .  A
C2048      H2059   1.084       .  S
C2049      C2050   1.403       .  A
C2049      H2060   1.084       .  S
C2050      C2051   1.401       .  A
C2051      C2052   1.405       .  A
C2051      H2061   1.085       .  S
C2052      C2053   1.404       .  A
C2053      H2062   1.084       .  S
C2054      C2055   1.409       .  A
C2054      H2063   1.084       .  S
C2055      C2056   1.406       .  A
C2056      H2064   1.084       .  S
C2065      C2066   1.397       .  A
C2065      C2070   1.403       .  A
C2065      H2081   1.084       .  S
C2066      C2067   1.402       .  A
C2066      H2082   1.084       .  S
C2067      C2077   1.400       .  A
C2067      C2068   1.412       .  A
C2068      C2074   1.413       .  A
C2068      C2069   1.412       .  A
C2069      C2071   1.412       .  A
C2069      C2070   1.412       .  A
C2070      C2078   1.401       .  A
C2071      C2080   1.406       .  A
C2071      C2072   1.404       .  A
C2072      C2073   1.401       .  A
C2072      H2083   1.084       .  S
C2073      C2074   1.404       .  A
C2073      H2084   1.084       .  S
C2074      C2075   1.404   1_545  A
C2075      C2076   1.405       .  A
C2075      H2085   1.085       .  S
C2076      C2077   1.402   1_565  A
C2077      H2086   1.085       .  S
C2078      C2079   1.403       .  A
C2078      H2087   1.085       .  S
C2079      C2080   1.406       .  A
C2080      H2088   1.084       .  S
C2089      C2090   1.400       .  A
C2089      C2094   1.404       .  A
C2089      H2105   1.084       .  S
C2090      C2091   1.403       .  A
C2090      H2106   1.084       .  S
C2091      C2101   1.404       .  A
C2091      C2092   1.412       .  A
C2092      C2098   1.412       .  A
C2092      C2093   1.415       .  A
C2093      C2095   1.412       .  A
C2093      C2094   1.413       .  A
C2094      C2102   1.406       .  A
C2095      C2104   1.406       .  A
C2095      C2096   1.404       .  A
C2096      C2097   1.401       .  A
C2096      H2107   1.084       .  S
C2097      C2098   1.405       .  A
C2097      H2108   1.084       .  S
C2098      C2099   1.406       .  A
C2099      C2100   1.407       .  A
C2099      H2109   1.085       .  S
C2100      C2101   1.402       .  A
C2101      H2110   1.084       .  S
C2102      C2103   1.406       .  A
C2102      H2111   1.085       .  S
C2103      C2104   1.406       .  A
C2104      H2112   1.084       .  S
C2113      C2114   1.399       .  A
C2113      C2118   1.403       .  A
C2113      H2129   1.084       .  S
C2114      C2115   1.404       .  A
C2114      H2130   1.084       .  S
C2115      C2125   1.402       .  A
C2115      C2116   1.408       .  A
C2116      C2122   1.412       .  A
C2116      C2117   1.415       .  A
C2117      C2119   1.408       .  A
C2117      C2118   1.412       .  A
C2118      C2126   1.406       .  A
C2119      C2128   1.404       .  A
C2119      C2120   1.405       .  A
C2120      C2121   1.401       .  A
C2120      H2131   1.084       .  S
C2121      C2122   1.404       .  A
C2121      H2132   1.083       .  S
C2122      C2123   1.409       .  A
C2123      C2124   1.411       .  A
C2123      H2133   1.081       .  S
C2124      C2125   1.413       .  A
C2125      H2134   1.082       .  S
C2126      C2127   1.409       .  A
C2126      H2135   1.079       .  S
C2127      C2128   1.414       .  A
C2128      H2136   1.082       .  S
C2137      C2138   1.401       .  A
C2137      C2142   1.404       .  A
C2137      H2153   1.083       .  S
C2138      C2139   1.404   1_565  A
C2138      H2154   1.084   1_565  S
C2139      C2149   1.406       .  A
C2139      C2140   1.412       .  A
C2140      C2146   1.412       .  A
C2140      C2141   1.414   1_545  A
C2141      C2143   1.411       .  A
C2141      C2142   1.413       .  A
C2142      C2150   1.408       .  A
C2143      C2152   1.402       .  A
C2143      C2144   1.403       .  A
C2144      C2145   1.399   1_565  A
C2144      H2155   1.084       .  S
C2145      C2146   1.404       .  A
C2145      H2156   1.084       .  S
C2146      C2147   1.404       .  A
C2147      C2148   1.407       .  A
C2147      H2157   1.085       .  S
C2148      C2149   1.407       .  A
C2149      H2158   1.084       .  S
C2150      C2151   1.405       .  A
C2150      H2159   1.084       .  S
C2151      C2152   1.405       .  A
C2152      H2160   1.085       .  S
C2161      C2162   1.401       .  A
C2161      C2166   1.404       .  A
C2161      H2177   1.083       .  S
C2162      C2163   1.404       .  A
C2162      H2178   1.083       .  S
C2163      C2173   1.405       .  A
C2163      C2164   1.411       .  A
C2164      C2170   1.413       .  A
C2164      C2165   1.414       .  A
C2165      C2167   1.411       .  A
C2165      C2166   1.413       .  A
C2166      C2174   1.407       .  A
C2167      C2176   1.404       .  A
C2167      C2168   1.404       .  A
C2168      C2169   1.400       .  A
C2168      H2179   1.084       .  S
C2169      C2170   1.404       .  A
C2169      H2180   1.084       .  S
C2170      C2171   1.406       .  A
C2171      C2172   1.406       .  A
C2171      H2181   1.084       .  S
C2172      C2173   1.407       .  A
C2173      H2182   1.084       .  S
C2174      C2175   1.404       .  A
C2174      H2183   1.084       .  S
C2175      C2176   1.405       .  A
C2176      H2184   1.085       .  S
C2185      C2186   1.399       .  A
C2185      C2190   1.403       .  A
C2185      H2201   1.084       .  S
C2186      C2187   1.403       .  A
C2186      H2202   1.083       .  S
C2187      C2197   1.403       .  A
C2187      C2188   1.413       .  A
C2188      C2194   1.412       .  A
C2188      C2189   1.411       .  A
C2189      C2191   1.412       .  A
C2189      C2190   1.413       .  A
C2190      C2198   1.403       .  A
C2191      C2200   1.402       .  A
C2191      C2192   1.403       .  A
C2192      C2193   1.399       .  A
C2192      H2203   1.084   1_455  S
C2193      C2194   1.404       .  A
C2193      H2204   1.084   1_455  S
C2194      C2195   1.402       .  A
C2195      C2196   1.404       .  A
C2195      H2205   1.085   1_455  S
C2196      C2197   1.402       .  A
C2197      H2206   1.084       .  S
C2198      C2199   1.403       .  A
C2198      H2207   1.085       .  S
C2199      C2200   1.404       .  A
C2200      H2208   1.085   1_455  S
C2209      C2210   1.400       .  A
C2209      C2214   1.403       .  A
C2209      H2225   1.083       .  S
C2210      C2211   1.404       .  A
C2210      H2226   1.083       .  S
C2211      C2221   1.404       .  A
C2211      C2212   1.412       .  A
C2212      C2218   1.412       .  A
C2212      C2213   1.411       .  A
C2213      C2215   1.411       .  A
C2213      C2214   1.413       .  A
C2214      C2222   1.404       .  A
C2215      C2224   1.399       .  A
C2215      C2216   1.403       .  A
C2216      C2217   1.397       .  A
C2216      H2227   1.084       .  S
C2217      C2218   1.403       .  A
C2217      H2228   1.083       .  S
C2218      C2219   1.401       .  A
C2219      C2220   1.404       .  A
C2219      H2229   1.084       .  S
C2220      C2221   1.406       .  A
C2221      H2230   1.084       .  S
C2222      C2223   1.402       .  A
C2222      H2231   1.084       .  S
C2223      C2224   1.404       .  A
C2224      H2232   1.085       .  S
C2233      C2234   1.399       .  A
C2233      C2238   1.403       .  A
C2233      H2249   1.084       .  S
C2234      C2235   1.404       .  A
C2234      H2250   1.084       .  S
C2235      C2245   1.401       .  A
C2235      C2236   1.408       .  A
C2236      C2242   1.413       .  A
C2236      C2237   1.413       .  A
C2237      C2239   1.408       .  A
C2237      C2238   1.412       .  A
C2238      C2246   1.405       .  A
C2239      C2248   1.402       .  A
C2239      C2240   1.404       .  A
C2240      C2241   1.400       .  A
C2240      H2251   1.084       .  S
C2241      C2242   1.404       .  A
C2241      H2252   1.083       .  S
C2242      C2243   1.407       .  A
C2243      C2244   1.408       .  A
C2243      H2253   1.082       .  S
C2244      C2245   1.412       .  A
C2245      H2254   1.083       .  S
C2246      C2247   1.408       .  A
C2246      H2255   1.080       .  S
C2247      C2248   1.411       .  A
C2248      H2256   1.083       .  S
C2257      C2258   1.403       .  A
C2257      C2262   1.405       .  A
C2257      H2273   1.083   1_554  S
C2258      C2259   1.405       .  A
C2258      H2274   1.084   1_554  S
C2259      C2269   1.407       .  A
C2259      C2260   1.411       .  A
C2260      C2266   1.413       .  A
C2260      C2261   1.416       .  A
C2261      C2263   1.411       .  A
C2261      C2262   1.414       .  A
C2262      C2270   1.412       .  A
C2263      C2272   1.403       .  A
C2263      C2264   1.404       .  A
C2264      C2265   1.399       .  A
C2264      H2275   1.084       .  S
C2265      C2266   1.403       .  A
C2265      H2276   1.084       .  S
C2266      C2267   1.405       .  A
C2267      C2268   1.403       .  A
C2267      H2277   1.085       .  S
C2268      C2269   1.407       .  A
C2269      H2278   1.084       .  S
C2270      C2271   1.408       .  A
C2270      H2279   1.084       .  S
C2271      C2272   1.405       .  A
C2272      H2280   1.085       .  S
C2281      C2282   1.400       .  A
C2281      C2286   1.404       .  A
C2281      H2297   1.083       .  S
C2282      C2283   1.404       .  A
C2282      H2298   1.084       .  S
C2283      C2293   1.405       .  A
C2283      C2284   1.412       .  A
C2284      C2290   1.413       .  A
C2284      C2285   1.416       .  A
C2285      C2287   1.411       .  A
C2285      C2286   1.412       .  A
C2286      C2294   1.407       .  A
C2287      C2296   1.408       .  A
C2287      C2288   1.405       .  A
C2288      C2289   1.402       .  A
C2288      H2299   1.084       .  S
C2289      C2290   1.405       .  A
C2289      H2300   1.084       .  S
C2290      C2291   1.408       .  A
C2291      C2292   1.407       .  A
C2291      H2301   1.085       .  S
C2292      C2293   1.405       .  A
C2293      H2302   1.085       .  S
C2294      C2295   1.407       .  A
C2294      H2303   1.085       .  S
C2295      C2296   1.408       .  A
C2296      H2304   1.084       .  S
C2305      C2306   1.404       .  A
C2305      C2310   1.406       .  A
C2305      H2321   1.083       .  S
C2306      C2307   1.405       .  A
C2306      H2322   1.083       .  S
C2307      C2317   1.414       .  A
C2307      C2308   1.414       .  A
C2308      C2314   1.411       .  A
C2308      C2309   1.419       .  A
C2309      C2311   1.412       .  A
C2309      C2310   1.412       .  A
C2310      C2318   1.412       .  A
C2311      C2320   1.406       .  A
C2311      C2312   1.404       .  A
C2312      C2313   1.400       .  A
C2312      H2323   1.084       .  S
C2313      C2314   1.404       .  A
C2313      H2324   1.084       .  S
C2314      C2315   1.405       .  A
C2315      C2316   1.408       .  A
C2315      H2325   1.085       .  S
C2316      C2317   1.408       .  A
C2317      H2326   1.084       .  S
C2318      C2319   1.412       .  A
C2318      H2327   1.084       .  S
C2319      C2320   1.409       .  A
C2320      H2328   1.084       .  S
C2329      C2330   1.402       .  A
C2329      C2334   1.405       .  A
C2329      H2345   1.084       .  S
C2330      C2331   1.405       .  A
C2330      H2346   1.084       .  S
C2331      C2341   1.409       .  A
C2331      C2332   1.412       .  A
C2332      C2338   1.412       .  A
C2332      C2333   1.416       .  A
C2333      C2335   1.412       .  A
C2333      C2334   1.412       .  A
C2334      C2342   1.408       .  A
C2335      C2344   1.406       .  A
C2335      C2336   1.404   1_554  A
C2336      C2337   1.400       .  A
C2336      H2347   1.083       .  S
C2337      C2338   1.404   1_556  A
C2337      H2348   1.084       .  S
C2338      C2339   1.407       .  A
C2339      C2340   1.405       .  A
C2339      H2349   1.084   1_554  S
C2340      C2341   1.408       .  A
C2341      H2350   1.084       .  S
C2342      C2343   1.407       .  A
C2342      H2351   1.084       .  S
C2343      C2344   1.405       .  A
C2344      H2352   1.085   1_554  S
C2353      C2354   1.403       .  A
C2353      C2358   1.406       .  A
C2353      H2369   1.084       .  S
C2354      C2355   1.404       .  A
C2354      H2370   1.083   1_554  S
C2355      C2365   1.414       .  A
C2355      C2356   1.415       .  A
C2356      C2362   1.406       .  A
C2356      C2357   1.418       .  A
C2357      C2359   1.414       .  A
C2357      C2358   1.407       .  A
C2358      C2366   1.405       .  A
C2359      C2368   1.411       .  A
C2359      C2360   1.403       .  A
C2360      C2361   1.401       .  A
C2360      H2371   1.084       .  S
C2361      C2362   1.405       .  A
C2361      H2372   1.084       .  S
C2362      C2363   1.403       .  A
C2363      C2364   1.417       .  A
C2363      H2373   1.082       .  S
C2364      C2365   1.410       .  A
C2365      H2374   1.083   1_554  S
C2366      C2367   1.415       .  A
C2366      H2375   1.082       .  S
C2367      C2368   1.409       .  A
C2368      H2376   1.081       .  S
C2377      C2378   1.402       .  A
C2377      C2382   1.405       .  A
C2377      H2393   1.084       .  S
C2378      C2379   1.404       .  A
C2378      H2394   1.083       .  S
C2379      C2389   1.409       .  A
C2379      C2380   1.413       .  A
C2380      C2386   1.412       .  A
C2380      C2381   1.417       .  A
C2381      C2383   1.412       .  A
C2381      C2382   1.412       .  A
C2382      C2390   1.409       .  A
C2383      C2392   1.406       .  A
C2383      C2384   1.404       .  A
C2384      C2385   1.400       .  A
C2384      H2395   1.084       .  S
C2385      C2386   1.404       .  A
C2385      H2396   1.084       .  S
C2386      C2387   1.406       .  A
C2387      C2388   1.407       .  A
C2387      H2397   1.085       .  S
C2388      C2389   1.405       .  A
C2389      H2398   1.084       .  S
C2390      C2391   1.410       .  A
C2390      H2399   1.084       .  S
C2391      C2392   1.409       .  A
C2392      H2400   1.084       .  S
C2401      C2402   1.402       .  A
C2401      C2406   1.405       .  A
C2401      H2417   1.083       .  S
C2402      C2403   1.405       .  A
C2402      H2418   1.084       .  S
C2403      C2413   1.407       .  A
C2403      C2404   1.412       .  A
C2404      C2410   1.412       .  A
C2404      C2405   1.413       .  A
C2405      C2407   1.412       .  A
C2405      C2406   1.412       .  A
C2406      C2414   1.408       .  A
C2407      C2416   1.402       .  A
C2407      C2408   1.403       .  A
C2408      C2409   1.398       .  A
C2408      H2419   1.084       .  S
C2409      C2410   1.402       .  A
C2409      H2420   1.084       .  S
C2410      C2411   1.401   1_455  A
C2411      C2412   1.404       .  A
C2411      H2421   1.085       .  S
C2412      C2413   1.408   1_655  A
C2413      H2422   1.085       .  S
C2414      C2415   1.406       .  A
C2414      H2423   1.084       .  S
C2415      C2416   1.404       .  A
C2416      H2424   1.085       .  S
C2425      C2426   1.398       .  A
C2425      C2430   1.403       .  A
C2425      H2441   1.084       .  S
C2426      C2427   1.403       .  A
C2426      H2442   1.083       .  S
C2427      C2437   1.403       .  A
C2427      C2428   1.411       .  A
C2428      C2434   1.413       .  A
C2428      C2429   1.416       .  A
C2429      C2431   1.413       .  A
C2429      C2430   1.413       .  A
C2430      C2438   1.403       .  A
C2431      C2440   1.410       .  A
C2431      C2432   1.405       .  A
C2432      C2433   1.403       .  A
C2432      H2443   1.084       .  S
C2433      C2434   1.405       .  A
C2433      H2444   1.084       .  S
C2434      C2435   1.410       .  A
C2435      C2436   1.408       .  A
C2435      H2445   1.084       .  S
C2436      C2437   1.406       .  A
C2437      H2446   1.084       .  S
C2438      C2439   1.402       .  A
C2438      H2447   1.085       .  S
C2439      C2440   1.408       .  A
C2440      H2448   1.084       .  S
C2449      C2450   1.402       .  A
C2449      C2454   1.405       .  A
C2449      H2465   1.084       .  S
C2450      C2451   1.405       .  A
C2450      H2466   1.083       .  S
C2451      C2461   1.409       .  A
C2451      C2452   1.412       .  A
C2452      C2458   1.412       .  A
C2452      C2453   1.416       .  A
C2453      C2455   1.411       .  A
C2453      C2454   1.413       .  A
C2454      C2462   1.409       .  A
C2455      C2464   1.404       .  A
C2455      C2456   1.404       .  A
C2456      C2457   1.399       .  A
C2456      H2467   1.083       .  S
C2457      C2458   1.403       .  A
C2457      H2468   1.084       .  S
C2458      C2459   1.404       .  A
C2459      C2460   1.405       .  A
C2459      H2469   1.085       .  S
C2460      C2461   1.407       .  A
C2461      H2470   1.084       .  S
C2462      C2463   1.408       .  A
C2462      H2471   1.084       .  S
C2463      C2464   1.407       .  A
C2464      H2472   1.084       .  S
C2473      C2474   1.402       .  A
C2473      C2478   1.406       .  A
C2473      H2489   1.083       .  S
C2474      C2475   1.404       .  A
C2474      H2490   1.083       .  S
C2475      C2485   1.412   1_655  A
C2475      C2476   1.413       .  A
C2476      C2482   1.408       .  A
C2476      C2477   1.417       .  A
C2477      C2479   1.413       .  A
C2477      C2478   1.408       .  A
C2478      C2486   1.406       .  A
C2479      C2488   1.408       .  A
C2479      C2480   1.403       .  A
C2480      C2481   1.400       .  A
C2480      H2491   1.084       .  S
C2481      C2482   1.405       .  A
C2481      H2492   1.084       .  S
C2482      C2483   1.403   1_655  A
C2483      C2484   1.415       .  A
C2483      H2493   1.082       .  S
C2484      C2485   1.411       .  A
C2485      H2494   1.082       .  S
C2486      C2487   1.415       .  A
C2486      H2495   1.083       .  S
C2487      C2488   1.409       .  A
C2488      H2496   1.081       .  S
C2497      C2498   1.397       .  A
C2497      C2502   1.403       .  A
C2497      H2513   1.084       .  S
C2498      C2499   1.402       .  A
C2498      H2514   1.084       .  S
C2499      C2509   1.402       .  A
C2499      C2500   1.413       .  A
C2500      C2506   1.412       .  A
C2500      C2501   1.413       .  A
C2501      C2503   1.413       .  A
C2501      C2502   1.411       .  A
C2502      C2510   1.400       .  A
C2503      C2512   1.407       .  A
C2503      C2504   1.405       .  A
C2504      C2505   1.402       .  A
C2504      H2515   1.084       .  S
C2505      C2506   1.405       .  A
C2505      H2516   1.084       .  S
C2506      C2507   1.407       .  A
C2507      C2508   1.406       .  A
C2507      H2517   1.085       .  S
C2508      C2509   1.401       .  A
C2509      H2518   1.085       .  S
C2510      C2511   1.404       .  A
C2510      H2519   1.085       .  S
C2511      C2512   1.407       .  A
C2512      H2520   1.084       .  S
C2521      C2522   1.401       .  A
C2521      C2526   1.405       .  A
C2521      H2537   1.084       .  S
C2522      C2523   1.404       .  A
C2522      H2538   1.083       .  S
C2523      C2533   1.407       .  A
C2523      C2524   1.413       .  A
C2524      C2530   1.411       .  A
C2524      C2525   1.413       .  A
C2525      C2527   1.412       .  A
C2525      C2526   1.411       .  A
C2526      C2534   1.405       .  A
C2527      C2536   1.402       .  A
C2527      C2528   1.403       .  A
C2528      C2529   1.398       .  A
C2528      H2539   1.084       .  S
C2529      C2530   1.403       .  A
C2529      H2540   1.084       .  S
C2530      C2531   1.401       .  A
C2531      C2532   1.404       .  A
C2531      H2541   1.085       .  S
C2532      C2533   1.405       .  A
C2533      H2542   1.084       .  S
C2534      C2535   1.408       .  A
C2534      H2543   1.084       .  S
C2535      C2536   1.405       .  A
C2536      H2544   1.085       .  S
C2545      C2546   1.402       .  A
C2545      C2550   1.405       .  A
C2545      H2561   1.083       .  S
C2546      C2547   1.405       .  A
C2546      H2562   1.084       .  S
C2547      C2557   1.409       .  A
C2547      C2548   1.412       .  A
C2548      C2554   1.413       .  A
C2548      C2549   1.419       .  A
C2549      C2551   1.412       .  A
C2549      C2550   1.413       .  A
C2550      C2558   1.410       .  A
C2551      C2560   1.410       .  A
C2551      C2552   1.405       .  A
C2552      C2553   1.403       .  A
C2552      H2563   1.083       .  S
C2553      C2554   1.405       .  A
C2553      H2564   1.084       .  S
C2554      C2555   1.412       .  A
C2555      C2556   1.409       .  A
C2555      H2565   1.085       .  S
C2556      C2557   1.408       .  A
C2557      H2566   1.084       .  S
C2558      C2559   1.408       .  A
C2558      H2567   1.084       .  S
C2559      C2560   1.408       .  A
C2560      H2568   1.084       .  S
C2569      C2570   1.402       .  A
C2569      C2574   1.405       .  A
C2569      H2585   1.084       .  S
C2570      C2571   1.405   1_565  A
C2570      H2586   1.084   1_565  S
C2571      C2581   1.410       .  A
C2571      C2572   1.413       .  A
C2572      C2578   1.412       .  A
C2572      C2573   1.417   1_545  A
C2573      C2575   1.413       .  A
C2573      C2574   1.411       .  A
C2574      C2582   1.408       .  A
C2575      C2584   1.408       .  A
C2575      C2576   1.404       .  A
C2576      C2577   1.401   1_565  A
C2576      H2587   1.083       .  S
C2577      C2578   1.404       .  A
C2577      H2588   1.083       .  S
C2578      C2579   1.407       .  A
C2579      C2580   1.406       .  A
C2579      H2589   1.085       .  S
C2580      C2581   1.407       .  A
C2581      H2590   1.084       .  S
C2582      C2583   1.410       .  A
C2582      H2591   1.084       .  S
C2583      C2584   1.406       .  A
C2584      H2592   1.084       .  S
C2593      C2594   1.401       .  A
C2593      C2598   1.405       .  A
C2593      H2609   1.083       .  S
C2594      C2595   1.405       .  A
C2594      H2610   1.084       .  S
C2595      C2605   1.404       .  A
C2595      C2596   1.407       .  A
C2596      C2602   1.411       .  A
C2596      C2597   1.415       .  A
C2597      C2599   1.407       .  A
C2597      C2598   1.412       .  A
C2598      C2606   1.410       .  A
C2599      C2608   1.401       .  A
C2599      C2600   1.405       .  A
C2600      C2601   1.399       .  A
C2600      H2611   1.084       .  S
C2601      C2602   1.403       .  A
C2601      H2612   1.084       .  S
C2602      C2603   1.405       .  A
C2603      C2604   1.409       .  A
C2603      H2613   1.080       .  S
C2604      C2605   1.416       .  A
C2605      H2614   1.081       .  S
C2606      C2607   1.412       .  A
C2606      H2615   1.080       .  S
C2607      C2608   1.415       .  A
C2608      H2616   1.082       .  S
C2617      C2618   1.398       .  A
C2617      C2622   1.403       .  A
C2617      H2633   1.084       .  S
C2618      C2619   1.403       .  A
C2618      H2634   1.084       .  S
C2619      C2629   1.401   1_455  A
C2619      C2620   1.411       .  A
C2620      C2626   1.413   1_455  A
C2620      C2621   1.412       .  A
C2621      C2623   1.411       .  A
C2621      C2622   1.413       .  A
C2622      C2630   1.402       .  A
C2623      C2632   1.402       .  A
C2623      C2624   1.404       .  A
C2624      C2625   1.400   1_455  A
C2624      H2635   1.084       .  S
C2625      C2626   1.404       .  A
C2625      H2636   1.083       .  S
C2626      C2627   1.405       .  A
C2627      C2628   1.403       .  A
C2627      H2637   1.084       .  S
C2628      C2629   1.404       .  A
C2629      H2638   1.085       .  S
C2630      C2631   1.404       .  A
C2630      H2639   1.085       .  S
C2631      C2632   1.406       .  A
C2632      H2640   1.085       .  S
C2641      C2642   1.401       .  A
C2641      C2646   1.405       .  A
C2641      H2657   1.083       .  S
C2642      C2643   1.404       .  A
C2642      H2658   1.084       .  S
C2643      C2653   1.406       .  A
C2643      C2644   1.412       .  A
C2644      C2650   1.413       .  A
C2644      C2645   1.417       .  A
C2645      C2647   1.412       .  A
C2645      C2646   1.412       .  A
C2646      C2654   1.409       .  A
C2647      C2656   1.408       .  A
C2647      C2648   1.405       .  A
C2648      C2649   1.401       .  A
C2648      H2659   1.084       .  S
C2649      C2650   1.404       .  A
C2649      H2660   1.084       .  S
C2650      C2651   1.407       .  A
C2651      C2652   1.406       .  A
C2651      H2661   1.085       .  S
C2652      C2653   1.406       .  A
C2653      H2662   1.084       .  S
C2654      C2655   1.409       .  A
C2654      H2663   1.084   1_545  S
C2655      C2656   1.408       .  A
C2656      H2664   1.084       .  S
C2665      C2666   1.398       .  A
C2665      C2670   1.403       .  A
C2665      H2681   1.083       .  S
C2666      C2667   1.402       .  A
C2666      H2682   1.084       .  S
C2667      C2677   1.400       .  A
C2667      C2668   1.411       .  A
C2668      C2674   1.414       .  A
C2668      C2669   1.416       .  A
C2669      C2671   1.411       .  A
C2669      C2670   1.412       .  A
C2670      C2678   1.405       .  A
C2671      C2680   1.410       .  A
C2671      C2672   1.406       .  A
C2672      C2673   1.404       .  A
C2672      H2683   1.084       .  S
C2673      C2674   1.406       .  A
C2673      H2684   1.083       .  S
C2674      C2675   1.412       .  A
C2675      C2676   1.408       .  A
C2675      H2685   1.084       .  S
C2676      C2677   1.403       .  A
C2677      H2686   1.085       .  S
C2678      C2679   1.407       .  A
C2678      H2687   1.084       .  S
C2679      C2680   1.411       .  A
C2680      H2688   1.084       .  S
C2689      C2690   1.402       .  A
C2689      C2694   1.404       .  A
C2689      H2705   1.084       .  S
C2690      C2691   1.405       .  A
C2690      H2706   1.084       .  S
C2691      C2701   1.408       .  A
C2691      C2692   1.412       .  A
C2692      C2698   1.413       .  A
C2692      C2693   1.416       .  A
C2693      C2695   1.412       .  A
C2693      C2694   1.412       .  A
C2694      C2702   1.407       .  A
C2695      C2704   1.406       .  A
C2695      C2696   1.404       .  A
C2696      C2697   1.400       .  A
C2696      H2707   1.084       .  S
C2697      C2698   1.403       .  A
C2697      H2708   1.083       .  S
C2698      C2699   1.406       .  A
C2699      C2700   1.403       .  A
C2699      H2709   1.084       .  S
C2700      C2701   1.407       .  A
C2701      H2710   1.085       .  S
C2702      C2703   1.408       .  A
C2702      H2711   1.084       .  S
C2703      C2704   1.407       .  A
C2704      H2712   1.084       .  S
C2713      C2714   1.399       .  A
C2713      C2718   1.404       .  A
C2713      H2729   1.083       .  S
C2714      C2715   1.403       .  A
C2714      H2730   1.083       .  S
C2715      C2725   1.406       .  A
C2715      C2716   1.412       .  A
C2716      C2722   1.409       .  A
C2716      C2717   1.415       .  A
C2717      C2719   1.412       .  A
C2717      C2718   1.409       .  A
C2718      C2726   1.403       .  A
C2719      C2728   1.408       .  A
C2719      C2720   1.405       .  A
C2720      C2721   1.401       .  A
C2720      H2731   1.084       .  S
C2721      C2722   1.405       .  A
C2721      H2732   1.084       .  S
C2722      C2723   1.404       .  A
C2723      C2724   1.413       .  A
C2723      H2733   1.083       .  S
C2724      C2725   1.407       .  A
C2725      H2734   1.081       .  S
C2726      C2727   1.411       .  A
C2726      H2735   1.083       .  S
C2727      C2728   1.412       .  A
C2728      H2736   1.080       .  S
