geometry optimzed in LAMMPS
_audit_creation_date              2020-11-30 
_audit_creation_method            'lammps2cif' 
_symmetry_space_group_name_H-M    'P1' 
_symmetry_Int_Tables_number       1 
_symmetry_cell_setting            triclinic 
loop_ 
_symmetry_equiv_pos_as_xyz 
  x,y,z 
_cell_length_a                    38.16367171 
_cell_length_b                    38.011884996020335 
_cell_length_c                    38.11139288422625 
_cell_angle_alpha                 89.9292499111301 
_cell_angle_beta                  90.1470233353164 
_cell_angle_gamma                 90.03569348775632 
loop_ 
_atom_site_label 
_atom_site_type_symbol 
_atom_site_fract_x 
_atom_site_fract_y 
_atom_site_fract_z 
_atom_site_charge 
C1          C  0.13012567  0.73639389  0.97223504     0.79600
N2          N  0.09438990  0.73430959  0.97188071    -0.78700
C3          C  0.07603373  0.73322404  0.00274230     0.82100
N4          N  0.09393833  0.73398021  0.03393791    -0.78600
C5          C  0.12967266  0.73597005  0.03427477     0.82200
N6          N  0.14703828  0.73736124  0.00337693    -0.80300
C7          C  0.39307251  0.59435241  0.03378919     0.79600
N8          N  0.41565496  0.56671634  0.03297213    -0.78700
C9          C  0.42952326  0.55553114  0.00195463     0.82100
N10         N  0.42033512  0.57237145  0.97206453    -0.78600
C11         C  0.39836752  0.60008872  0.97275928     0.82200
N12         N  0.38460783  0.61097481  0.00349510    -0.80300
C13         C  0.98495768  0.24406524  0.02827822     0.79600
N14         N  0.02083873  0.24336005  0.02842393    -0.78700
C15         C  0.03916870  0.24342550  0.99744726     0.82100
N16         N  0.02114044  0.24414377  0.96630796    -0.78600
C17         C  0.98542839  0.24537711  0.96614087     0.82200
N18         N  0.96811728  0.24495742  0.99696553    -0.80300
C19         C  0.71253852  0.37332773  0.96536318     0.79600
N20         N  0.69120840  0.40173299  0.96745206    -0.78700
C21         C  0.68515635  0.41729334  0.99896581     0.82100
N22         N  0.70194909  0.40481385  0.02784908    -0.78600
C23         C  0.72363510  0.37673045  0.02586076     0.82200
N24         N  0.72869654  0.36092590  0.99451870    -0.80300
C25         C  0.79995341  0.95181344  0.07235451     0.79600
N26         N  0.79820117  0.98295794  0.08939114    -0.78700
C27         C  0.79977371  0.01403147  0.07205014     0.82100
N28         N  0.80358857  0.01382552  0.03630303    -0.78600
C29         C  0.80531529  0.98257847  0.01832705     0.82200
N30         N  0.80386857  0.95161414  0.03674211    -0.80300
C31         C  0.66910523  0.01721576  0.33697125     0.79600
N32         N  0.68024904  0.98560402  0.32512922    -0.78700
C33         C  0.66682593  0.95533535  0.33834291     0.82100
N34         N  0.64096677  0.95692701  0.36272266    -0.78600
C35         C  0.62930473  0.98853465  0.37480098     0.82200
N36         N  0.64361958  0.01850964  0.36158780    -0.80300
C37         C  0.29922393  0.01734695  0.92746232     0.79600
N38         N  0.30010790  0.01796781  0.96335976    -0.78700
C39         C  0.30023783  0.98710683  0.98218047     0.82100
N40         N  0.29932449  0.95561665  0.96457179    -0.78600
C41         C  0.29851276  0.95496071  0.92872628     0.82200
N42         N  0.29862372  0.98579827  0.91121471    -0.80300
C43         C  0.44307775  0.95230991  0.66573469     0.79600
N44         N  0.43173142  0.98367544  0.67809478    -0.78700
C45         C  0.44763866  0.01400064  0.66825683     0.82100
N46         N  0.47587746  0.01247529  0.64670599    -0.78600
C47         C  0.48777306  0.98108538  0.63431184     0.82200
N48         N  0.47110343  0.95121071  0.64412660    -0.80300
C49         C  0.98258556  0.73177323  0.03276833     0.79600
N50         N  0.01839008  0.73196486  0.03317233    -0.78700
C51         C  0.03685966  0.73230400  0.00234851     0.82100
N52         N  0.01904825  0.73229345  0.97108208    -0.78600
C53         C  0.98327398  0.73212635  0.97045864     0.82200
N54         N  0.96591202  0.73196533  0.00142320    -0.80300
C55         C  0.73114642  0.59635223  0.03111406     0.79600
N56         N  0.70573566  0.57161155  0.03009225    -0.78700
C57         C  0.69505256  0.55770589  0.99913344     0.82100
N58         N  0.71033495  0.56908811  0.96900430    -0.78600
C59         C  0.73539429  0.59447490  0.96953986     0.82200
N60         N  0.74586022  0.60795697  0.00085213    -0.80300
C61         C  0.13185999  0.23901712  0.96567578     0.79600
N62         N  0.09616549  0.24138758  0.96607012    -0.78700
C63         C  0.07841291  0.24198384  0.99730077     0.82100
N64         N  0.09694990  0.24011117  0.02812973    -0.78600
C65         C  0.13270191  0.23736003  0.02769815     0.82200
N66         N  0.14937747  0.23716524  0.99647210    -0.80300
C67         C  0.39666548  0.37101496  0.96818212     0.79600
N68         N  0.38556011  0.35673775  0.99883480    -0.78700
C69         C  0.39757685  0.36912080  0.02988636     0.82100
N70         N  0.41997536  0.39668588  0.03025504    -0.78600
C71         C  0.43119616  0.41170329  0.00005938     0.82200
N72         N  0.41914382  0.39871121  0.96897769    -0.80300
C73         C  0.81276180  0.94980234  0.92570587     0.79600
N74         N  0.81193348  0.98045092  0.90784365    -0.78700
C75         C  0.80833341  0.01179388  0.92398297     0.82100
N76         N  0.80686416  0.01266141  0.95988292    -0.78600
C77         C  0.80797788  0.98197931  0.97895241     0.82200
N78         N  0.81057082  0.95048296  0.96151085    -0.80300
C79         C  0.67105384  0.01638593  0.65899338     0.79600
N80         N  0.68618028  0.98569622  0.66901972    -0.78700
C81         C  0.67420072  0.95440515  0.65695319     0.82100
N82         N  0.64644777  0.95410926  0.63473917    -0.78600
C83         C  0.63070014  0.98452152  0.62433253     0.82200
N84         N  0.64291815  0.01562881  0.63714862    -0.80300
C85         C  0.30416428  0.01924377  0.07530207     0.79600
N86         N  0.30329561  0.01885996  0.03941191    -0.78700
C87         C  0.30112575  0.98763385  0.02153878     0.82100
N88         N  0.29953384  0.95676774  0.04010952    -0.78600
C89         C  0.29980494  0.95707512  0.07596202     0.82200
N90         N  0.30262340  0.98825219  0.09280974    -0.80300
C91         C  0.45069104  0.95955502  0.32594912     0.79600
N92         N  0.47841033  0.96068861  0.34845089    -0.78700
C93         C  0.48945010  0.99180068  0.36247841     0.82100
N94         N  0.47266628  0.02174864  0.35328219    -0.78600
C95         C  0.44539608  0.02093182  0.33077470     0.82200
N96         N  0.43458192  0.99007788  0.31708437    -0.80300
C97         C  0.02903506  0.05924095  0.75326790     0.79600
N98         N  0.02855382  0.02334855  0.75690043    -0.78700
C99         C  0.05933406  0.00468166  0.75925181     0.82100
N100        N  0.09056050  0.02250800  0.75840921    -0.78600
C101        C  0.09100634  0.05828279  0.75515950     0.82200
N102        N  0.06035287  0.07597586  0.75271448    -0.80300
C103        C  0.02609549  0.32146497  0.61180705     0.79600
N104        N  0.05672281  0.31164047  0.62715507    -0.78700
C105        C  0.08764763  0.32453107  0.61542739     0.82100
N106        N  0.08806672  0.34655174  0.58756951    -0.78600
C107        C  0.05796488  0.35636383  0.57147502     0.82200
N108        N  0.02704584  0.34345493  0.58375136    -0.80300
C109        C  0.08966144  0.91077915  0.76630470     0.79600
N110        N  0.08987352  0.94667953  0.76337801    -0.78700
C111        C  0.05903233  0.96521626  0.76226295     0.82100
N112        N  0.02796058  0.94718023  0.76348453    -0.78600
C113        C  0.02776552  0.91138636  0.76696009     0.82200
N114        N  0.05852443  0.89381422  0.76824875    -0.80300
C115        C  0.03239269  0.63978155  0.61043731     0.79600
N116        N  0.03216010  0.61872174  0.58184879    -0.78700
C117        C  0.06236541  0.60391417  0.57007964     0.82100
N118        N  0.09303151  0.61146650  0.58674478    -0.78600
C119        C  0.09323594  0.63227828  0.61554474     0.82200
N120        N  0.06295183  0.64639092  0.62719379    -0.80300
C121        C  0.08819846  0.91248544  0.25049004     0.79600
N122        N  0.08782249  0.94848268  0.24928523    -0.78700
C123        C  0.05675643  0.96642722  0.24693799     0.82100
N124        N  0.02599033  0.94779271  0.24571278    -0.78600
C125        C  0.02627396  0.91185895  0.24631366     0.82200
N126        N  0.05730602  0.89487086  0.24904129    -0.80300
C127        C  0.08675271  0.66871714  0.39606647     0.79600
N128        N  0.08880145  0.64248651  0.41992304    -0.78700
C129        C  0.05980733  0.62696458  0.43303672     0.82100
N130        N  0.02787813  0.63817383  0.42177145    -0.78600
C131        C  0.02543881  0.66461722  0.39792691     0.82200
N132        N  0.05487690  0.67977241  0.38493921    -0.80300
C133        C  0.02354469  0.05907092  0.24800618     0.79600
N134        N  0.05383824  0.07744262  0.24626948    -0.78700
C135        C  0.08545892  0.06138148  0.24472689     0.82100
N136        N  0.08652522  0.02529206  0.24486391    -0.78600
C137        C  0.05608041  0.00595626  0.24616571     0.82200
N138        N  0.02461518  0.02320995  0.24753026    -0.80300
C139        C  0.08423334  0.31699890  0.38864743     0.79600
N140        N  0.08435202  0.34044443  0.41537927    -0.78700
C141        C  0.05392571  0.35341661  0.42854108     0.82100
N142        N  0.02315287  0.34249444  0.41430491    -0.78600
C143        C  0.02273131  0.31951460  0.38713920     0.82200
N144        N  0.05330892  0.30664573  0.37463794    -0.80300
C145        C  0.31327083  0.51975800  0.42743000     0.79600
N146        N  0.31428280  0.51897459  0.46320047    -0.78700
C147        C  0.31341817  0.48754277  0.48073328     0.82100
N148        N  0.31134759  0.45685385  0.46192495    -0.78600
C149        C  0.30970207  0.45776830  0.42609379     0.82200
N150        N  0.31119212  0.48914410  0.40954223    -0.80300
C151        C  0.16825809  0.45897673  0.16013998     0.79600
N152        N  0.14115430  0.45900607  0.13718966    -0.78700
C153        C  0.12662947  0.48971062  0.12619555     0.82100
N154        N  0.13937547  0.52054940  0.13924932    -0.78600
C155        C  0.16650736  0.52080056  0.16232992     0.82200
N156        N  0.18052610  0.48978283  0.17270388    -0.80300
O157        O  0.25912893  0.73778041  0.14656948    -0.87100
O158        O  0.24260764  0.71842409  0.34289812    -0.87300
O159        O  0.21650663  0.67148744  0.22937297    -0.88900
O160        O  0.20301580  0.78464985  0.24635194    -0.87700
O161        O  0.23993357  0.83162418  0.25320526    -0.87300
O162        O  0.26411027  0.63442097  0.23013221    -0.88600
O163        O  0.20461106  0.71987937  0.29587155    -0.87100
O164        O  0.21278121  0.73247293  0.18422198    -0.86700
Zr165      Zr  0.23784977  0.73008457  0.24292650     2.84300
O166        O  0.26559854  0.76461277  0.28522979    -1.08700
O167        O  0.28026471  0.70124133  0.20911034    -1.09400
C168        C  0.22593755  0.73525307  0.15317735     1.06000
C169        C  0.21190926  0.71599317  0.32866277     1.06000
C170        C  0.23127165  0.64122451  0.22559696     1.08900
C171        C  0.20908869  0.81798961  0.25030944     1.06700
H172        H  0.25970318  0.67679296  0.29013301     0.32300
O173        O  0.27377088  0.69466643  0.27892267    -1.29600
H174        H  0.25616018  0.78650236  0.19897074     0.32000
O175        O  0.27109198  0.77226831  0.21374062    -1.31300
O176        O  0.35724009  0.73166998  0.35549595    -0.87100
O177        O  0.37166931  0.75868174  0.15885416    -0.88600
O178        O  0.31394559  0.63345126  0.30000355    -0.87200
O179        O  0.28598130  0.82980610  0.31424430    -0.87200
O180        O  0.30054770  0.84084182  0.20064850    -0.86900
O181        O  0.33163009  0.64370484  0.18747110    -0.86700
O182        O  0.41299254  0.68980301  0.25393443    -0.87100
O183        O  0.39856035  0.80450388  0.27030908    -0.86600
O184        O  0.37600934  0.64276139  0.24774619    -0.87600
O185        O  0.35097163  0.84114037  0.26638024    -0.86800
O186        O  0.30648681  0.67101067  0.34629898    -0.87200
O187        O  0.32835899  0.68982291  0.14847440    -0.86900
O188        O  0.30824829  0.80240444  0.15508067    -0.86600
O189        O  0.29007207  0.78372632  0.35324305    -0.87000
O190        O  0.40314693  0.73912945  0.31778003    -0.87300
O191        O  0.40930983  0.75880634  0.20619808    -0.88600
Zr192      Zr  0.30183713  0.72978813  0.32125999     2.83100
Zr193      Zr  0.31376082  0.74357861  0.18038162     2.83500
Zr194      Zr  0.31677813  0.66696312  0.24509787     2.84100
Zr195      Zr  0.29877771  0.80705989  0.25590337     2.83400
Zr196      Zr  0.37785283  0.74441980  0.25919397     2.84200
O197        O  0.34154598  0.77867900  0.22267592    -1.09200
O198        O  0.34442314  0.70162133  0.28752856    -1.08700
C199        C  0.39055613  0.73463697  0.34885259     1.06000
C200        C  0.40177531  0.76342813  0.17354982     1.08600
C201        C  0.31109874  0.64005317  0.33318170     1.06200
C202        C  0.28448864  0.81627363  0.34529626     1.06500
C203        C  0.30387579  0.83368606  0.16752725     1.06100
C204        C  0.33459047  0.65736710  0.15659833     1.05700
C205        C  0.40698441  0.65638312  0.24992964     1.06100
C206        C  0.38380075  0.83517488  0.27115541     1.05600
H207        H  0.36848807  0.69898931  0.20268811     0.32300
O208        O  0.35042566  0.70975647  0.21670747    -1.30300
H209        H  0.34601393  0.78742727  0.31040525     0.32300
O210        O  0.33502994  0.77282095  0.29281512    -1.31600
C211        C  0.48461446  0.23922009  0.46837057     0.79600
N212        N  0.52055006  0.23849923  0.46796611    -0.78700
C213        C  0.53938765  0.23957612  0.49876179     0.82100
N214        N  0.52166690  0.24117547  0.53001589    -0.78600
C215        C  0.48584629  0.24219263  0.53056090     0.82200
N216        N  0.46815491  0.24134181  0.49976825    -0.80300
C217        C  0.21505237  0.09780327  0.46627088     0.79600
N218        N  0.23091092  0.10994619  0.49560197    -0.78700
C219        C  0.22471786  0.09504579  0.52714442     0.82100
N220        N  0.20181246  0.06784103  0.52910153    -0.78600
C221        C  0.18511311  0.05555636  0.50000816     0.82200
N222        N  0.19248040  0.07034480  0.46831190    -0.80300
O223        O  0.30073405  0.13031897  0.79489927    -0.87100
O224        O  0.33136429  0.32513700  0.81566740    -0.87300
O225        O  0.37367454  0.21053548  0.83793041    -0.88900
O226        O  0.26049409  0.23010827  0.85316748    -0.87700
O227        O  0.21409458  0.23928763  0.81597003    -0.87300
O228        O  0.41108100  0.21441481  0.79076068    -0.88600
O229        O  0.32794054  0.27743260  0.85269888    -0.87100
O230        O  0.30912069  0.16669561  0.84181673    -0.86700
Zr231      Zr  0.31468066  0.22582489  0.81812154     2.84300
O232        O  0.28114805  0.26966664  0.79143059    -1.08700
O233        O  0.34173582  0.19234362  0.77435861    -1.09400
C234        C  0.30415332  0.13596730  0.82830374     1.06000
C235        C  0.33373733  0.31015558  0.84602426     1.06000
C236        C  0.40402561  0.20819274  0.82317353     1.08900
C237        C  0.22737246  0.23459218  0.84679963     1.06700
H238        H  0.36930455  0.27197349  0.79732636     0.32300
O239        O  0.35102122  0.26159057  0.78315938    -1.29600
H240        H  0.25650396  0.18464357  0.79850326     0.32000
O241        O  0.27129584  0.19921417  0.78398033    -1.31300
O242        O  0.31474630  0.34181534  0.70279738    -0.87100
O243        O  0.28441356  0.14594981  0.68109245    -0.88600
O244        O  0.41205219  0.28328120  0.74195756    -0.87200
O245        O  0.21825970  0.30128158  0.77365742    -0.87200
O246        O  0.20124719  0.18941372  0.75379360    -0.86900
O247        O  0.39779840  0.16892195  0.72565795    -0.86700
O248        O  0.35634563  0.24412625  0.64385371    -0.87100
O249        O  0.24242151  0.26162504  0.65749753    -0.86600
O250        O  0.40267293  0.23391742  0.68073668    -0.87600
O251        O  0.20516418  0.25832138  0.70487072    -0.86800
O252        O  0.37536036  0.32986071  0.75203953    -0.87200
O253        O  0.35042915  0.13155936  0.72875086    -0.86900
O254        O  0.23836560  0.14257160  0.74577757    -0.86600
O255        O  0.26544898  0.33889029  0.77156644    -0.87000
O256        O  0.30642097  0.30544355  0.65554574    -0.87300
O257        O  0.28761945  0.19347819  0.64381565    -0.88600
Zr258      Zr  0.31702313  0.30543134  0.75640148     2.83100
Zr259      Zr  0.29807692  0.16567983  0.74049499     2.83500
Zr260      Zr  0.37742365  0.22834551  0.73900873     2.84100
Zr261      Zr  0.23794045  0.24285576  0.75692224     2.83400
Zr262      Zr  0.30100371  0.24569565  0.67808038     2.84200
O263        O  0.26476257  0.20956587  0.71298464    -1.09200
O264        O  0.34402220  0.27230699  0.71255244    -1.08700
C265        C  0.31149270  0.33601460  0.66940878     1.06000
C266        C  0.28193216  0.16065983  0.65058675     1.08600
C267        C  0.40585493  0.31655066  0.74641833     1.06200
C268        C  0.23301200  0.33159512  0.77736381     1.06500
C269        C  0.20764402  0.15609053  0.75043762     1.06100
C270        C  0.38317887  0.13829640  0.72371658     1.05700
C271        C  0.38962761  0.24007461  0.65006833     1.06100
C272        C  0.21223374  0.26474878  0.67246588     1.05600
H273        H  0.34465478  0.18736737  0.68659848     0.32300
O274        O  0.33399220  0.20137899  0.70478677    -1.30300
H275        H  0.25998853  0.29795790  0.71179664     0.32300
O276        O  0.27372717  0.27922868  0.72200021    -1.31600
C277        C  0.48248833  0.72934350  0.47278350     0.79600
N278        N  0.51834862  0.72994503  0.47245031    -0.78700
C279        C  0.53704761  0.73245719  0.50320811     0.82100
N280        N  0.51914233  0.73482926  0.53444780    -0.78600
C281        C  0.48317273  0.73505685  0.53474096     0.82200
N282        N  0.46591952  0.73243170  0.50383841    -0.80300
C283        C  0.23592725  0.88227082  0.53307730     0.79600
N284        N  0.25101895  0.87176221  0.50268074    -0.78700
C285        C  0.23965760  0.88474011  0.47147300     0.82100
N286        N  0.21292721  0.90827081  0.47116104    -0.78600
C287        C  0.19700906  0.91840033  0.50131950     0.82200
N288        N  0.20874967  0.90514897  0.53227307    -0.80300
C289        C  0.31665929  0.51725466  0.57442510     0.79600
N290        N  0.31506640  0.51774670  0.53859416    -0.78700
C291        C  0.31480277  0.48691068  0.51995178     0.82100
N292        N  0.31583022  0.45555219  0.53765089    -0.78600
C293        C  0.31758970  0.45504665  0.57344379     0.82200
N294        N  0.31818063  0.48585498  0.59112331    -0.80300
C295        C  0.17012425  0.45030333  0.84403968     0.79600
N296        N  0.18452359  0.48115852  0.83349623    -0.78700
C297        C  0.17351747  0.51214572  0.84691047     0.82100
N298        N  0.14741605  0.51212972  0.87082480    -0.78600
C299        C  0.13219474  0.48164197  0.88163483     0.82200
N300        N  0.14347455  0.45067833  0.86765123    -0.80300
O301        O  0.26050037  0.74146464  0.85991232    -0.87100
O302        O  0.24090626  0.70260332  0.66650106    -0.87300
O303        O  0.20112498  0.77913340  0.76258862    -0.88900
O304        O  0.21800372  0.66618160  0.78231876    -0.87700
O305        O  0.26525187  0.62895641  0.77721124    -0.87300
O306        O  0.23731171  0.82615479  0.75252286    -0.88600
O307        O  0.20444699  0.70535282  0.71413705    -0.87100
O308        O  0.21375781  0.73010983  0.82381413    -0.86700
Zr309      Zr  0.23706296  0.72507800  0.76478198     2.84300
O310        O  0.27254274  0.69019899  0.72852421    -1.08700
O311        O  0.27002025  0.76995553  0.79026804    -1.09400
C312        C  0.22727091  0.73641724  0.85421941     1.06000
C313        C  0.21136819  0.69723624  0.68203244     1.06000
C314        C  0.20698833  0.81257416  0.75879254     1.08900
C315        C  0.23300074  0.63578016  0.78456255     1.06700
H316        H  0.24304506  0.76899764  0.70612140     0.32300
O317        O  0.26191595  0.75889625  0.71982958    -1.29600
H318        H  0.27186477  0.68529250  0.81722847     0.32000
O319        O  0.28155566  0.69915021  0.79834824    -1.31300
O320        O  0.35223259  0.73074627  0.64792406    -0.87100
O321        O  0.37328974  0.75938866  0.84341342    -0.88600
O322        O  0.28207742  0.82379510  0.68721073    -0.87200
O323        O  0.31244220  0.62886207  0.70636372    -0.87200
O324        O  0.33443189  0.64547090  0.82057385    -0.86900
O325        O  0.29933279  0.83971346  0.79935876    -0.86700
O326        O  0.39472977  0.79943697  0.72672458    -0.87100
O327        O  0.41170937  0.68560393  0.74658921    -0.86600
O328        O  0.34715682  0.83653134  0.73013206    -0.87600
O329        O  0.37520296  0.63897749  0.75763608    -0.86800
O330        O  0.28162627  0.77573861  0.65052859    -0.87200
O331        O  0.30851364  0.80396034  0.84667233    -0.86900
O332        O  0.33194679  0.69391060  0.85668119    -0.86600
O333        O  0.30427217  0.66563137  0.65937167    -0.87000
O334        O  0.39931791  0.73800431  0.68458028    -0.87300
O335        O  0.41007812  0.75435945  0.79592505    -0.88600
Zr336      Zr  0.29846852  0.72404048  0.68406539     2.83100
Zr337      Zr  0.31432930  0.74455120  0.82354710     2.83500
Zr338      Zr  0.29612705  0.80299159  0.74603314     2.84100
Zr339      Zr  0.31636609  0.66339308  0.76164140     2.83400
Zr340      Zr  0.37620826  0.74057311  0.74392817     2.84200
O341        O  0.34941117  0.70802710  0.78807595    -1.09200
O342        O  0.33200545  0.76754727  0.71072429    -1.08700
C343        C  0.38555475  0.73514185  0.65374258     1.06000
C344        C  0.40358172  0.76097292  0.82845772     1.08600
C345        C  0.27755403  0.80875575  0.65719812     1.06200
C346        C  0.30911493  0.63490133  0.67290051     1.06500
C347        C  0.33884116  0.66145532  0.85018211     1.06100
C348        C  0.30295665  0.83445822  0.83280336     1.05700
C349        C  0.37947769  0.82959048  0.72363058     1.06100
C350        C  0.40577508  0.65227657  0.75190586     1.05600
H351        H  0.35504034  0.79629093  0.78909732     0.32300
O352        O  0.34104744  0.77760297  0.77915409    -1.30300
H353        H  0.35705553  0.68249688  0.70263057     0.32300
O354        O  0.34244933  0.69697611  0.71738837    -1.31600
C355        C  0.80043689  0.45200001  0.42237848     0.79600
N356        N  0.79954632  0.48331754  0.40546359    -0.78700
C357        C  0.79860925  0.51415309  0.42304437     0.82100
N358        N  0.79956785  0.51373523  0.45885987    -0.78600
C359        C  0.80041899  0.48248075  0.47680870     0.82200
N360        N  0.80072476  0.45153916  0.45829303    -0.80300
C361        C  0.95311008  0.51555375  0.17921184     0.79600
N362        N  0.97728969  0.51793646  0.15319796    -0.78700
C363        C  0.98840280  0.48892605  0.13566082     0.82100
N364        N  0.97568125  0.45695809  0.14521806    -0.78600
C365        C  0.95230581  0.45414728  0.17167880     0.82200
N366        N  0.94080770  0.48337844  0.18828986    -0.80300
C367        C  0.58948354  0.55869115  0.24567267     0.79600
N368        N  0.58898587  0.52278555  0.24584723    -0.78700
C369        C  0.55780611  0.50502840  0.24499047     0.82100
N370        N  0.52703074  0.52374880  0.24443495    -0.78600
C371        C  0.52733441  0.55975163  0.24453276     0.82200
N372        N  0.55871492  0.57643732  0.24523144    -0.80300
C373        C  0.58554590  0.80539135  0.10469536     0.79600
N374        N  0.58727785  0.83081365  0.07969379    -0.78700
C375        C  0.55777531  0.84609539  0.06665375     0.82100
N376        N  0.52623416  0.83526621  0.07880574    -0.78600
C377        C  0.52424939  0.81015457  0.10381210     0.82200
N378        N  0.55377726  0.79538980  0.11681033    -0.80300
O379        O  0.80973373  0.84207760  0.20330868    -0.87100
O380        O  0.78317527  0.64473139  0.18784959    -0.87300
O381        O  0.85333859  0.73879732  0.14624495    -0.88900
O382        O  0.74090748  0.75612250  0.16046136    -0.87700
O383        O  0.70310037  0.75384301  0.20732936    -0.87300
O384        O  0.90011510  0.73218220  0.18343987    -0.88600
O385        O  0.78365816  0.69223585  0.15035541    -0.87100
O386        O  0.80389305  0.80353334  0.15726998    -0.86700
Zr387      Zr  0.79988401  0.74477943  0.18212391     2.84300
O388        O  0.76477860  0.70921187  0.21806047    -1.08700
O389        O  0.84278955  0.77334402  0.21533303    -1.09400
C390        C  0.80665016  0.83477819  0.17012493     1.06000
C391        C  0.77853820  0.65957185  0.15774700     1.06000
C392        C  0.88652483  0.73462850  0.15242836     1.08900
C393        C  0.71024387  0.75816857  0.17454022     1.06700
H394        H  0.84448815  0.68710282  0.19150493     0.32300
O395        O  0.83383979  0.70154279  0.20936524    -1.29600
H396        H  0.75752571  0.79705075  0.21374273     0.32000
O397        O  0.77189304  0.77925907  0.22474765    -1.31300
O398        O  0.80031299  0.63172009  0.30057618    -0.87100
O399        O  0.83163202  0.82820029  0.31721198    -0.88600
O400        O  0.89868890  0.67121982  0.23170007    -0.87200
O401        O  0.70274775  0.68742361  0.25620737    -0.87200
O402        O  0.71608534  0.80205424  0.27574442    -0.86900
O403        O  0.91169575  0.78504073  0.24549128    -0.86700
O404        O  0.87130620  0.71515384  0.34353589    -0.87100
O405        O  0.75876541  0.73488271  0.35697150    -0.86600
O406        O  0.90877457  0.71615981  0.29623402    -0.87600
O407        O  0.71214115  0.73998843  0.31934824    -0.86800
O408        O  0.85191626  0.63316919  0.23450612    -0.87200
O409        O  0.87408534  0.83138733  0.25343031    -0.86900
O410        O  0.76304734  0.84010017  0.27389311    -0.86600
O411        O  0.74016586  0.64101641  0.24816002    -0.87000
O412        O  0.80822483  0.66959620  0.34665285    -0.87300
O413        O  0.82808959  0.78084359  0.35453155    -0.88600
Zr414      Zr  0.79868016  0.66622515  0.24594065     2.83100
Zr415      Zr  0.81512309  0.80735068  0.25830475     2.83500
Zr416      Zr  0.87666016  0.73024166  0.24303195     2.84100
Zr417      Zr  0.73652341  0.74302779  0.26038767     2.83400
Zr418      Zr  0.81289179  0.72869697  0.32189586     2.84200
O419        O  0.77935504  0.77170587  0.29397371    -1.09200
O420        O  0.84136936  0.69468249  0.27937682    -1.08700
C421        C  0.80380166  0.63851006  0.33372916     1.06000
C422        C  0.83524032  0.81325041  0.34758583     1.08600
C423        C  0.88461594  0.64038793  0.22964029     1.06200
C424        C  0.70924984  0.65411822  0.25212019     1.06500
C425        C  0.73056618  0.83260634  0.27939057     1.06100
C426        C  0.90501899  0.81833397  0.24937286     1.05700
C427        C  0.90150299  0.71126289  0.32892917     1.06100
C428        C  0.72551147  0.73820741  0.35046126     1.05600
H429        H  0.86729857  0.77448574  0.29973551     0.32300
O430        O  0.84893907  0.76386800  0.28587776    -1.30300
H431        H  0.75563332  0.68571770  0.30310986     0.32300
O432        O  0.77032489  0.70020905  0.28840093    -1.31600
C433        C  0.63187007  0.72930397  0.53131963     0.79600
N434        N  0.64788289  0.73254404  0.49996262    -0.78700
C435        C  0.62973829  0.73606004  0.46970065     0.82100
N436        N  0.59387389  0.73587798  0.47083648    -0.78600
C437        C  0.57661506  0.73268545  0.50229310     0.82200
N438        N  0.59596410  0.72963676  0.53261157    -0.80300
C439        C  0.89967203  0.88080223  0.53074324     0.79600
N440        N  0.91917462  0.91052280  0.52891358    -0.78700
C441        C  0.92697522  0.92512210  0.49728567     0.82100
N442        N  0.91424342  0.90990222  0.46769905    -0.78600
C443        C  0.89503993  0.88004493  0.46930322     0.82200
N444        N  0.88778731  0.86547489  0.50091149    -0.80300
C445        C  0.58968008  0.55874234  0.73985259     0.79600
N446        N  0.58948881  0.52269001  0.74170032    -0.78700
C447        C  0.55847788  0.50449428  0.74437100     0.82100
N448        N  0.52754364  0.52290955  0.74515105    -0.78600
C449        C  0.52746500  0.55878306  0.74294122     0.82200
N450        N  0.55846805  0.57588418  0.74063401    -0.80300
C451        C  0.53141167  0.81485925  0.88547191     0.79600
N452        N  0.56167857  0.80626946  0.86919881    -0.78700
C453        C  0.59263723  0.81914118  0.88086855     0.82100
N454        N  0.59333782  0.84035000  0.90933188    -0.78600
C455        C  0.56334880  0.84943467  0.92593520     0.82200
N456        N  0.53239659  0.83646955  0.91374053    -0.80300
C457        C  0.79919349  0.45180723  0.57062945     0.79600
N458        N  0.79994987  0.45146767  0.53471390    -0.78700
C459        C  0.80061503  0.48246129  0.51619431     0.82100
N460        N  0.80075404  0.51372071  0.53413524    -0.78600
C461        C  0.80007827  0.51410563  0.56997575     0.82200
N462        N  0.79912436  0.48312230  0.58744458    -0.80300
C463        C  0.95169921  0.51289048  0.82866696     0.79600
N464        N  0.93821739  0.48116715  0.81993936    -0.78700
C465        C  0.95131457  0.45144099  0.83447348     0.82100
N466        N  0.97838051  0.45334364  0.85753561    -0.78600
C467        C  0.99201515  0.48513305  0.86671384     0.82200
N468        N  0.97832129  0.51459727  0.85210655    -0.80300
O469        O  0.85744546  0.73941600  0.85184847    -0.87100
O470        O  0.88159087  0.70432187  0.65921897    -0.87300
O471        O  0.90025717  0.66768124  0.77381745    -0.88900
O472        O  0.91730024  0.78142560  0.75667972    -0.87700
O473        O  0.88075405  0.82806692  0.74548202    -0.87300
O474        O  0.85366050  0.62967809  0.76766526    -0.88600
O475        O  0.91698168  0.71280422  0.70715072    -0.87100
O476        O  0.90501259  0.72995243  0.81686452    -0.86700
Zr477      Zr  0.88174527  0.72675359  0.75751587     2.84300
O478        O  0.85625312  0.75984333  0.71278715    -1.08700
O479        O  0.83738490  0.69907010  0.78963977    -1.09400
C480        C  0.89070686  0.73440592  0.84716404     1.06000
C481        C  0.91143833  0.70247600  0.67552387     1.06000
C482        C  0.88580708  0.63699694  0.77515951     1.08900
C483        C  0.91111968  0.81472031  0.75198289     1.06700
H484        H  0.86108569  0.67115600  0.71185099     0.32300
O485        O  0.84708848  0.68998334  0.72136916    -1.29600
H486        H  0.86203933  0.78495286  0.79844918     0.32000
O487        O  0.84780562  0.77039168  0.78332877    -1.31300
O488        O  0.76791963  0.72622094  0.63943135    -0.87100
O489        O  0.74519897  0.75828440  0.83450752    -0.88600
O490        O  0.80401257  0.62825138  0.69913223    -0.87200
O491        O  0.84314305  0.82280350  0.68109349    -0.87200
O492        O  0.81746132  0.83906253  0.79358965    -0.86900
O493        O  0.78782595  0.64297287  0.81213548    -0.86700
O494        O  0.70747122  0.68763976  0.73598436    -0.87100
O495        O  0.72348317  0.80101111  0.71998305    -0.86600
O496        O  0.74262264  0.64011279  0.74580113    -0.87600
O497        O  0.77081867  0.83831017  0.72379602    -0.86800
O498        O  0.81458252  0.66446186  0.65234302    -0.87200
O499        O  0.79150231  0.69036210  0.84949280    -0.86900
O500        O  0.80709060  0.80194106  0.83986469    -0.86600
O501        O  0.84235934  0.77487491  0.64442235    -0.87000
O502        O  0.72115228  0.73550947  0.67584575    -0.87300
O503        O  0.70932413  0.75658866  0.78587054    -0.88600
Zr504      Zr  0.82211543  0.72350683  0.67608087     2.83100
Zr505      Zr  0.80387525  0.74291068  0.81566661     2.83500
Zr506      Zr  0.80193545  0.66363151  0.75329526     2.84100
Zr507      Zr  0.82224413  0.80400136  0.73879051     2.83400
Zr508      Zr  0.74358077  0.74168006  0.73477906     2.84200
O509        O  0.77812535  0.77710011  0.77143560    -1.09200
O510        O  0.77740408  0.69786129  0.70900530    -1.08700
C511        C  0.73452675  0.73003024  0.64534627     1.06000
C512        C  0.71554882  0.76196411  0.81866055     1.08600
C513        C  0.80786743  0.63399806  0.66581807     1.06200
C514        C  0.84939521  0.80727495  0.65157314     1.06500
C515        C  0.81249133  0.83278828  0.82677536     1.06100
C516        C  0.78587552  0.65762887  0.84261134     1.05700
C517        C  0.71230636  0.65404903  0.73964935     1.06100
C518        C  0.73822702  0.83157484  0.71778609     1.05600
H519        H  0.74926576  0.69721285  0.79324529     0.32300
O520        O  0.76794455  0.70756357  0.77964470    -1.30300
H521        H  0.77816696  0.78229243  0.68268535     0.32300
O522        O  0.78804455  0.76822841  0.70136357    -1.31600
C523        C  0.52497388  0.41252062  0.24825112     0.79600
N524        N  0.55527359  0.39424636  0.24682684    -0.78700
C525        C  0.58665528  0.41039165  0.24367487     0.82100
N526        N  0.58773484  0.44644234  0.24342406    -0.78600
C527        C  0.55725656  0.46563084  0.24517106     0.82200
N528        N  0.52592746  0.44832738  0.24728080    -0.80300
C529        C  0.58469704  0.14565464  0.11373904     0.79600
N530        N  0.55428946  0.15908278  0.12645097    -0.78700
C531        C  0.52286762  0.14771842  0.11400295     0.82100
N532        N  0.52230197  0.12346506  0.08797996    -0.78600
C533        C  0.55243303  0.11006956  0.07449237     0.82200
N534        N  0.58357898  0.12170270  0.08739953    -0.80300
O535        O  0.85500943  0.23059758  0.14130510    -0.87100
O536        O  0.87011936  0.25864800  0.33667227    -0.87300
O537        O  0.89709618  0.29960971  0.22155983    -0.88900
O538        O  0.91093335  0.18625728  0.24307418    -0.87700
O539        O  0.87270921  0.13990301  0.24817400    -0.87300
O540        O  0.84961385  0.33691006  0.22099380    -0.88600
O541        O  0.90854944  0.25532124  0.29029514    -0.87100
O542        O  0.90142963  0.23791650  0.17874178    -0.86700
Zr543      Zr  0.87622417  0.24105582  0.23733803     2.84300
O544        O  0.84751307  0.20794886  0.28000012    -1.08700
O545        O  0.83340679  0.26876148  0.20287689    -1.09400
C546        C  0.88817531  0.23501475  0.14766965     1.06000
C547        C  0.90078470  0.26125071  0.32266692     1.06000
C548        C  0.88223882  0.32966029  0.21620578     1.08900
C549        C  0.90380515  0.15294006  0.24578713     1.06700
H550        H  0.85428671  0.29629641  0.28249168     0.32300
O551        O  0.84040279  0.27789304  0.27190174    -1.29600
H552        H  0.85714717  0.18349986  0.19462146     0.32000
O553        O  0.84244129  0.19822504  0.20904185    -1.31300
O554        O  0.75706354  0.24156521  0.34973092    -0.87100
O555        O  0.74075845  0.20969098  0.15449474    -0.88600
O556        O  0.80049661  0.34053617  0.29151687    -0.87200
O557        O  0.83088709  0.14498294  0.31055883    -0.87200
O558        O  0.80961708  0.12983575  0.19703500    -0.86900
O559        O  0.78430466  0.32568827  0.17853223    -0.86700
O560        O  0.70099336  0.28294119  0.24871636    -0.87100
O561        O  0.71529198  0.16871041  0.26828984    -0.86600
O562        O  0.73881781  0.32919326  0.24118672    -0.87600
O563        O  0.76219484  0.13074966  0.26514941    -0.86800
O564        O  0.80611338  0.30324069  0.33854841    -0.87200
O565        O  0.78764427  0.27873391  0.14066650    -0.86900
O566        O  0.80433258  0.16747319  0.15019095    -0.86600
O567        O  0.82675955  0.19237924  0.34789896    -0.87000
O568        O  0.71094736  0.23354605  0.31213243    -0.87300
O569        O  0.70304589  0.21255197  0.20150559    -0.88600
Zr570      Zr  0.81173503  0.24425700  0.31481889     2.83100
Zr571      Zr  0.79969302  0.22608019  0.17477425     2.83500
Zr572      Zr  0.79743404  0.30474766  0.23747208     2.84100
Zr573      Zr  0.81415741  0.16463102  0.25179011     2.83400
Zr574      Zr  0.73571228  0.22803440  0.25344704     2.84200
O575        O  0.77148062  0.19249825  0.21787070    -1.09200
O576        O  0.76919279  0.27160466  0.28050935    -1.08700
C577        C  0.72379091  0.23796248  0.34317492     1.06000
C578        C  0.71035974  0.20636629  0.16914475     1.08600
C579        C  0.80302060  0.33413926  0.32490192     1.06200
C580        C  0.83367669  0.16002996  0.34082456     1.06500
C581        C  0.80696559  0.13648997  0.16367353     1.06100
C582        C  0.78203726  0.31140346  0.14790395     1.05700
C583        C  0.70784239  0.31626141  0.24506009     1.06100
C584        C  0.72979895  0.13808085  0.27114245     1.05600
H585        H  0.74532422  0.27216733  0.19551027     0.32300
O586        O  0.76327629  0.26151146  0.20989326    -1.30300
H587        H  0.76800761  0.18631616  0.30611686     0.32300
O588        O  0.77859368  0.20029723  0.28782351    -1.31600
C589        C  0.52475736  0.41197266  0.74758367     0.79600
N590        N  0.55491581  0.39352481  0.74776897    -0.78700
C591        C  0.58662301  0.40917372  0.74643205     0.82100
N592        N  0.58813825  0.44529332  0.74578033    -0.78600
C593        C  0.55778892  0.46488438  0.74579715     0.82200
N594        N  0.52614605  0.44780948  0.74634170    -0.80300
C595        C  0.52711996  0.15327656  0.88845088     0.79600
N596        N  0.52513036  0.13042778  0.91551079    -0.78700
C597        C  0.55413612  0.12046537  0.93336537     0.82100
N598        N  0.58581178  0.13370227  0.92340370    -0.78600
C599        C  0.58827393  0.15644557  0.89593371     0.82200
N600        N  0.55860468  0.16659999  0.87901150    -0.80300
C601        C  0.63319148  0.23590724  0.52943968     0.79600
N602        N  0.59732764  0.23691450  0.52949587    -0.78700
C603        C  0.57892295  0.23898755  0.49850500     0.82100
N604        N  0.59708668  0.24068103  0.46745085    -0.78600
C605        C  0.63299967  0.24086780  0.46741893     0.82200
N606        N  0.65016181  0.23816637  0.49841151    -0.80300
C607        C  0.89806798  0.10782097  0.46551352     0.79600
N608        N  0.92209861  0.08165432  0.46640514    -0.78700
C609        C  0.93261196  0.06739262  0.49740033     0.82100
N610        N  0.91785904  0.07922101  0.52756813    -0.78600
C611        C  0.89383066  0.10547174  0.52708149     0.82200
N612        N  0.88408130  0.11957485  0.49593748    -0.80300
O613        O  0.85576789  0.23072323  0.85604611    -0.87100
O614        O  0.87241582  0.25957573  0.66032444    -0.87300
O615        O  0.91333309  0.18650364  0.75628766    -0.88900
O616        O  0.89822934  0.29995376  0.77443361    -0.87700
O617        O  0.85059168  0.33717262  0.77513065    -0.87300
O618        O  0.87617324  0.13959145  0.74935563    -0.88600
O619        O  0.91028153  0.25595592  0.70725283    -0.87100
O620        O  0.90192966  0.23704480  0.81800647    -0.86700
Zr621      Zr  0.87753635  0.24120310  0.75946604     2.84300
O622        O  0.84191716  0.27762835  0.72408438    -1.08700
O623        O  0.84462479  0.19738027  0.78686515    -1.09400
C624        C  0.88892421  0.23420398  0.84901875     1.06000
C625        C  0.90308534  0.26176532  0.67468200     1.06000
C626        C  0.90699431  0.15296502  0.75342056     1.08900
C627        C  0.88333695  0.32996668  0.77969973     1.06700
H628        H  0.86871755  0.19804375  0.70176111     0.32300
O629        O  0.85034045  0.20818674  0.71584359    -1.29600
H630        H  0.84457846  0.28227796  0.81249776     0.32000
O631        O  0.83430446  0.26838933  0.79394866    -1.31300
O632        O  0.75878550  0.23899098  0.64594022    -0.87100
O633        O  0.74266179  0.21009207  0.84211244    -0.88600
O634        O  0.83260939  0.14508336  0.68383480    -0.87200
O635        O  0.80079151  0.34025020  0.70349643    -0.87200
O636        O  0.77788060  0.32210982  0.81602982    -0.86900
O637        O  0.81429897  0.12812301  0.79770417    -0.86700
O638        O  0.71829679  0.16761444  0.72675157    -0.87100
O639        O  0.70284061  0.28185725  0.74741397    -0.86600
O640        O  0.76576828  0.13030182  0.72878021    -0.87600
O641        O  0.73997701  0.32857595  0.75448168    -0.86800
O642        O  0.82765630  0.19276625  0.64682144    -0.87200
O643        O  0.80687921  0.16518990  0.84442656    -0.86900
O644        O  0.78075953  0.27460311  0.85318875    -0.86600
O645        O  0.80848902  0.30327921  0.65677238    -0.87000
O646        O  0.71259239  0.23143428  0.68360451    -0.87300
O647        O  0.70453654  0.21419330  0.79544759    -0.88600
Zr648      Zr  0.81367359  0.24411810  0.68087117     2.83100
Zr649      Zr  0.80134093  0.22420004  0.82074666     2.83500
Zr650      Zr  0.81741445  0.16398569  0.74335898     2.84100
Zr651      Zr  0.79868634  0.30437848  0.75810195     2.83400
Zr652      Zr  0.73758915  0.22686000  0.74243085     2.84200
O653        O  0.76595935  0.26001816  0.78513059    -1.09200
O654        O  0.78101709  0.19996148  0.70834764    -1.08700
C655        C  0.72555033  0.23530656  0.65257201     1.06000
C656        C  0.71180130  0.20875899  0.82812243     1.08600
C657        C  0.83467205  0.16031825  0.65352373     1.06200
C658        C  0.80377424  0.33414142  0.67005206     1.06500
C659        C  0.77276623  0.30672533  0.84584122     1.06100
C660        C  0.81101121  0.13436191  0.83108728     1.05700
C661        C  0.73317176  0.13726464  0.72336998     1.06100
C662        C  0.70907380  0.31533172  0.75118584     1.05600
H663        H  0.75977115  0.17196526  0.78791284     0.32300
O664        O  0.77369539  0.19032732  0.77731973    -1.30300
H665        H  0.75582979  0.28540538  0.70068189     0.32300
O666        O  0.77071910  0.27075860  0.71509060    -1.31600
O667        O  0.25685462  0.23418428  0.14496263    -0.87100
O668        O  0.24077546  0.26442395  0.34008198    -0.87300
O669        O  0.19885847  0.19443400  0.24310354    -0.88900
O670        O  0.21627321  0.30757890  0.22509556    -0.87700
O671        O  0.26396211  0.34461355  0.22814237    -0.87300
O672        O  0.23483040  0.14706936  0.25119085    -0.88600
O673        O  0.20302673  0.26254422  0.29287280    -0.87100
O674        O  0.21085122  0.24400561  0.18206488    -0.86700
Zr675      Zr  0.23549785  0.24833570  0.24054708     2.84300
O676        O  0.27158663  0.28335673  0.27668747    -1.08700
O677        O  0.26782805  0.20412127  0.21327010    -1.09400
C678        C  0.22373523  0.23901108  0.15128828     1.06000
C679        C  0.21035097  0.26756675  0.32549927     1.06000
C680        C  0.20421159  0.16084070  0.24649725     1.08900
C681        C  0.23146929  0.33777431  0.22190490     1.06700
H682        H  0.24319680  0.20442988  0.29796699     0.32300
O683        O  0.26184722  0.21443376  0.28410686    -1.29600
H684        H  0.26904685  0.28907925  0.18822180     0.32000
O685        O  0.27925534  0.27492700  0.20663653    -1.31300
O686        O  0.35367129  0.24221799  0.35463555    -0.87100
O687        O  0.37052440  0.21605227  0.15870381    -0.88600
O688        O  0.27765879  0.15036988  0.31566633    -0.87200
O689        O  0.31169188  0.34494182  0.29782783    -0.87200
O690        O  0.33173913  0.32962522  0.18418155    -0.86900
O691        O  0.29906227  0.13437074  0.20294951    -0.86700
O692        O  0.39427691  0.17252593  0.27170042    -0.87100
O693        O  0.41043306  0.28609829  0.25500109    -0.86600
O694        O  0.34550965  0.13681575  0.27306509    -0.87600
O695        O  0.37408658  0.33345351  0.24702286    -0.86800
O696        O  0.28312272  0.19725567  0.35314887    -0.87200
O697        O  0.30746275  0.17118594  0.15601622    -0.86900
O698        O  0.32635430  0.28257297  0.14651085    -0.86600
O699        O  0.30556051  0.30714526  0.34443552    -0.87000
O700        O  0.39987207  0.23398818  0.31741752    -0.87300
O701        O  0.40828722  0.21908670  0.20576605    -0.88600
Zr702      Zr  0.29919275  0.24872768  0.31965462     2.83100
Zr703      Zr  0.31166012  0.23050972  0.17970226     2.83500
Zr704      Zr  0.29428052  0.17012466  0.25686289     2.84100
Zr705      Zr  0.31509580  0.31005415  0.24294645     2.83400
Zr706      Zr  0.37495100  0.23193296  0.25828721     2.84200
O707        O  0.34781071  0.26599892  0.21517740    -1.09200
O708        O  0.33147089  0.20471351  0.29220157    -1.08700
C709        C  0.38679063  0.23738821  0.34848724     1.06000
C710        C  0.40112519  0.21347159  0.17316207     1.08600
C711        C  0.27477110  0.16514531  0.34605958     1.06200
C712        C  0.30922237  0.33812013  0.33116456     1.06500
C713        C  0.33375026  0.31482365  0.15374025     1.06100
C714        C  0.30373136  0.14034156  0.16973361     1.05700
C715        C  0.37847468  0.14298504  0.27693445     1.06100
C716        C  0.40458591  0.31951807  0.25137098     1.05600
H717        H  0.35223227  0.17786333  0.21275109     0.32300
O718        O  0.33840882  0.19628909  0.22327573    -1.30300
H719        H  0.35741045  0.28997090  0.30063192     0.32300
O720        O  0.34240978  0.27574177  0.28593660    -1.31600
C721        C  0.82762947  0.14001839  0.59306493    -0.20900
C722        C  0.84785320  0.14021866  0.62366929    -0.07500
C723        C  0.88252647  0.12741028  0.62306092     0.13400
C724        C  0.89650182  0.11550037  0.59125072    -0.21000
C725        C  0.87680182  0.11671786  0.56004062    -0.07500
C726        C  0.84141366  0.12818385  0.56125795     0.13400
C727        C  0.81755639  0.12778817  0.52965314    -0.24300
H728        H  0.80113829  0.15032412  0.59391789     0.14700
H729        H  0.92341572  0.10643539  0.59053382     0.14700
C730        C  0.90542505  0.12818888  0.65536578    -0.24300
H731        H  0.82642987  0.14751119  0.51013996     0.04900
H732        H  0.79015116  0.13465425  0.53662614     0.08100
H733        H  0.81718187  0.10108161  0.51788723     0.08100
H734        H  0.89368261  0.11160513  0.67624366     0.08100
H735        H  0.90796621  0.15559790  0.66502220     0.08100
H736        H  0.93217179  0.11805425  0.64999181     0.04900
C737        C  0.70799324  0.21359039  0.59323124    -0.20900
C738        C  0.70033178  0.23483126  0.62224978    -0.07500
C739        C  0.66856364  0.25436603  0.62187637     0.13400
C740        C  0.64653164  0.25355094  0.59190316    -0.21000
C741        C  0.65481680  0.23303960  0.56238962    -0.07500
C742        C  0.68558542  0.21190697  0.56380093     0.13400
C743        C  0.69454777  0.18631185  0.53494540    -0.24300
H744        H  0.73158676  0.19771886  0.59380037     0.14700
H745        H  0.62310157  0.26963500  0.59123220     0.14700
C746        C  0.65811602  0.27683965  0.65264490    -0.24300
H747        H  0.71699701  0.16920577  0.54229009     0.04900
H748        H  0.70211221  0.20054790  0.51072387     0.08100
H749        H  0.67172548  0.16897678  0.52957139     0.08100
H750        H  0.67929044  0.29590799  0.65886742     0.08100
H751        H  0.65307014  0.25989094  0.67580908     0.08100
H752        H  0.63378743  0.29194000  0.64722403     0.04900
C753        C  0.62206398  0.20531318  0.86956310    -0.20900
C754        C  0.62236696  0.17149061  0.88461476    -0.07500
C755        C  0.65418888  0.15224627  0.88524945     0.13400
C756        C  0.68379827  0.16620066  0.86832717    -0.21000
C757        C  0.68229498  0.19861188  0.85078138    -0.07500
C758        C  0.65152023  0.21903263  0.85250627     0.13400
C759        C  0.64960072  0.25525382  0.83636157    -0.24300
H760        H  0.59818208  0.22072820  0.87008265     0.14700
H761        H  0.70773820  0.15089286  0.86715504     0.14700
C762        C  0.65692229  0.11639827  0.90196333    -0.24300
H763        H  0.62406718  0.26816229  0.84171396     0.04900
H764        H  0.65266215  0.25367257  0.80747663     0.08100
H765        H  0.67062328  0.27214046  0.84743163     0.08100
H766        H  0.63762524  0.09819320  0.88985511     0.08100
H767        H  0.65204281  0.11849199  0.93057378     0.08100
H768        H  0.68339230  0.10477481  0.89853070     0.04900
C769        C  0.64995270  0.39753778  0.76125746    -0.20900
C770        C  0.61854606  0.38583747  0.74595949    -0.07500
C771        C  0.61757021  0.35083734  0.73231247     0.13400
C772        C  0.64718486  0.32904098  0.73507604    -0.21000
C773        C  0.67852651  0.34047757  0.75051500    -0.07500
C774        C  0.67974701  0.37551741  0.76394343     0.13400
C775        C  0.71169742  0.38991621  0.78234924    -0.24300
H776        H  0.65095324  0.42389450  0.77202452     0.14700
H777        H  0.64575474  0.30256478  0.72474910     0.14700
C778        C  0.58589668  0.33575789  0.71379271    -0.24300
H779        H  0.70698939  0.41660044  0.79319915     0.04900
H780        H  0.73383353  0.39217633  0.76367430     0.08100
H781        H  0.71897129  0.37245771  0.80458066     0.08100
H782        H  0.57732833  0.35378397  0.69250535     0.08100
H783        H  0.56435792  0.33123609  0.73275152     0.08100
H784        H  0.59153964  0.30987048  0.70155035     0.04900
C785        C  0.70821959  0.25944431  0.40317684    -0.20900
C786        C  0.69856900  0.23968287  0.37358053    -0.07500
C787        C  0.66532450  0.22249330  0.37402890     0.13400
C788        C  0.64395158  0.22431722  0.40432474    -0.21000
C789        C  0.65441222  0.24301783  0.43435821    -0.07500
C790        C  0.68680211  0.26159300  0.43315418     0.13400
C791        C  0.69895543  0.28471465  0.46298900    -0.24300
H792        H  0.73290879  0.27355629  0.40289966     0.14700
H793        H  0.61928263  0.21019057  0.40489883     0.14700
C794        C  0.65229165  0.20129344  0.34323246    -0.24300
H795        H  0.72244244  0.30036653  0.45576436     0.04900
H796        H  0.70636033  0.26849499  0.48603415     0.08100
H797        H  0.67789597  0.30347951  0.47022069     0.08100
H798        H  0.67157373  0.18053985  0.33655304     0.08100
H799        H  0.64800231  0.21876859  0.32027431     0.08100
H800        H  0.62693153  0.18816469  0.34896360     0.04900
C801        C  0.88481464  0.13526175  0.37053589    -0.20900
C802        C  0.84840381  0.13998354  0.36994512    -0.07500
C803        C  0.82839086  0.13297720  0.40008376     0.13400
C804        C  0.84547368  0.12193943  0.43063228    -0.21000
C805        C  0.88213930  0.11859224  0.43193333    -0.07500
C806        C  0.90211098  0.12501760  0.40139304     0.13400
C807        C  0.94157298  0.12343720  0.40167941    -0.24300
H808        H  0.89995385  0.14181922  0.34737118     0.14700
H809        H  0.83004676  0.11609284  0.45370335     0.14700
C810        C  0.78911676  0.13749399  0.40004823    -0.24300
H811        H  0.95277210  0.13166762  0.37608463     0.04900
H812        H  0.95051163  0.09617840  0.40692590     0.08100
H813        H  0.95204502  0.14136776  0.42216636     0.08100
H814        H  0.77726453  0.12019433  0.37977363     0.08100
H815        H  0.78215329  0.16524895  0.39425339     0.08100
H816        H  0.77750269  0.13051754  0.42583529     0.04900
C817        C  0.51916838  0.09237282  0.02176109    -0.20900
C818        C  0.55109817  0.09175100  0.04001354    -0.07500
C819        C  0.58186505  0.08490008  0.02069831     0.13400
C820        C  0.58166451  0.09086758  0.98448195    -0.21000
C821        C  0.55077492  0.10115473  0.96716063    -0.07500
C822        C  0.51840014  0.09755974  0.98539620     0.13400
C823        C  0.48294651  0.10149733  0.96819182    -0.24300
H824        H  0.49482920  0.09377423  0.03624742     0.14700
H825        H  0.60618606  0.08952804  0.97027211     0.14700
C826        C  0.61514973  0.07236917  0.03764306    -0.24300
H827        H  0.46129646  0.09499701  0.98653089     0.04900
H828        H  0.48086003  0.08308399  0.94575183     0.08100
H829        H  0.47861656  0.12903688  0.95957731     0.08100
H830        H  0.61039398  0.06376490  0.06499932     0.08100
H831        H  0.63523599  0.09350440  0.03694219     0.08100
H832        H  0.62517985  0.04906310  0.02328445     0.04900
C833        C  0.49141706  0.20073372  0.13522806    -0.20900
C834        C  0.48993508  0.16500786  0.12562573    -0.07500
C835        C  0.45733764  0.14707640  0.12753975     0.13400
C836        C  0.42786761  0.16488511  0.14048186    -0.21000
C837        C  0.43014186  0.19980457  0.15191001    -0.07500
C838        C  0.46194334  0.21830871  0.14839004     0.13400
C839        C  0.46471359  0.25659673  0.15833160    -0.24300
H840        H  0.51591130  0.21496731  0.13280666     0.14700
H841        H  0.40332506  0.15083271  0.14367960     0.14700
C842        C  0.45353046  0.10875674  0.11808106    -0.24300
H843        H  0.49121657  0.26734247  0.15284103     0.04900
H844        H  0.45948205  0.26004777  0.18673856     0.08100
H845        H  0.44536780  0.27213163  0.14298552     0.08100
H846        H  0.47244200  0.09276309  0.13348557     0.08100
H847        H  0.45812439  0.10503463  0.08961837     0.08100
H848        H  0.42679191  0.09870980  0.12379325     0.04900
C849        C  0.67868369  0.15552677  0.14578932    -0.20900
C850        C  0.68125535  0.19215906  0.14847772    -0.07500
C851        C  0.65273040  0.21347914  0.13858563     0.13400
C852        C  0.62166146  0.19751039  0.12697409    -0.21000
C853        C  0.61859252  0.16070543  0.12509128    -0.07500
C854        C  0.64763207  0.13943869  0.13433402     0.13400
C855        C  0.64556029  0.09989407  0.13421322    -0.24300
H856        H  0.70049803  0.13939774  0.15447707     0.14700
H857        H  0.59954895  0.21383080  0.11957865     0.14700
C858        C  0.65510678  0.25299146  0.14068792    -0.24300
H859        H  0.66974361  0.08766808  0.14499565     0.04900
H860        H  0.64250017  0.09045245  0.10700045     0.08100
H861        H  0.62308097  0.09096468  0.15038194     0.08100
H862        H  0.67686786  0.26242120  0.12381452     0.08100
H863        H  0.66017449  0.26121191  0.16815609     0.08100
H864        H  0.63051731  0.26582854  0.13173745     0.04900
C865        C  0.49094746  0.36430344  0.27525315    -0.20900
C866        C  0.49185871  0.39225399  0.25112894    -0.07500
C867        C  0.46350532  0.39674930  0.22766095     0.13400
C868        C  0.43528393  0.37284664  0.22862956    -0.21000
C869        C  0.43494086  0.34414789  0.25206333    -0.07500
C870        C  0.46291280  0.34039700  0.27619965     0.13400
C871        C  0.46310464  0.31187924  0.30365047    -0.24300
H872        H  0.51275376  0.36083312  0.29322350     0.14700
H873        H  0.41379221  0.37599975  0.21023831     0.14700
C874        C  0.46373781  0.42547480  0.20040831    -0.24300
H875        H  0.48584860  0.31436886  0.32171843     0.04900
H876        H  0.46485944  0.28569865  0.29096358     0.08100
H877        H  0.43885129  0.31347988  0.31962358     0.08100
H878        H  0.48713906  0.42266372  0.18338132     0.08100
H879        H  0.46431126  0.45157268  0.21341656     0.08100
H880        H  0.44008569  0.42444091  0.18339053     0.04900
C881        C  0.64963153  0.39775491  0.25887280    -0.20900
C882        C  0.61879239  0.38773795  0.24131242    -0.07500
C883        C  0.61828044  0.35459634  0.22382322     0.13400
C884        C  0.64748148  0.33212422  0.22596400    -0.21000
C885        C  0.67787691  0.34164907  0.24427189    -0.07500
C886        C  0.67914446  0.37531070  0.26049650     0.13400
C887        C  0.71095970  0.38732364  0.28077148    -0.24300
H888        H  0.65031966  0.42288005  0.27226381     0.14700
H889        H  0.64669187  0.30687324  0.21282740     0.14700
C890        C  0.58756011  0.34274645  0.20172673    -0.24300
H891        H  0.70645683  0.41301582  0.29384845     0.04900
H892        H  0.73353788  0.39070149  0.26279721     0.08100
H893        H  0.71760250  0.36773576  0.30138627     0.08100
H894        H  0.58067968  0.36351059  0.18238787     0.08100
H895        H  0.56465640  0.33666777  0.21851461     0.08100
H896        H  0.59361433  0.31840467  0.18681647     0.04900
C897        C  0.94440448  0.40730323  0.78805694    -0.20900
C898        C  0.93774333  0.41742833  0.82282436    -0.07500
C899        C  0.91558331  0.39680021  0.84416161     0.13400
C900        C  0.89920688  0.36735079  0.82950391    -0.21000
C901        C  0.90478898  0.35812802  0.79437370    -0.07500
C902        C  0.92834086  0.37748234  0.77362071     0.13400
C903        C  0.93543602  0.36734589  0.73609858    -0.24300
H904        H  0.96150557  0.42334156  0.77193134     0.14700
H905        H  0.88117921  0.35199516  0.84531193     0.14700
C906        C  0.90742166  0.40581471  0.88177888    -0.24300
H907        H  0.95434408  0.38558522  0.72346627     0.04900
H908        H  0.91066437  0.36790174  0.72075763     0.08100
H909        H  0.94661691  0.34039824  0.73517379     0.08100
H910        H  0.87877730  0.41000578  0.88469662     0.08100
H911        H  0.92097859  0.42988016  0.89099248     0.08100
H912        H  0.91551387  0.38368042  0.89903284     0.04900
C913        C  0.93535285  0.57539685  0.83441956    -0.20900
C914        C  0.93778848  0.54547772  0.81297851    -0.07500
C915        C  0.92703376  0.54751182  0.77742580     0.13400
C916        C  0.91146138  0.57855409  0.76519675    -0.21000
C917        C  0.90728383  0.60758681  0.78732877    -0.07500
C918        C  0.92015749  0.60650533  0.82200195     0.13400
C919        C  0.91632873  0.63747446  0.84641715    -0.24300
H920        H  0.94422238  0.57405074  0.86143319     0.14700
H921        H  0.90187573  0.58003625  0.73842037     0.14700
C922        C  0.93256698  0.51764872  0.75200043    -0.24300
H923        H  0.92700107  0.63171757  0.87294775     0.04900
H924        H  0.88821246  0.64441688  0.84928368     0.08100
H925        H  0.93083139  0.66041638  0.83576024     0.08100
H926        H  0.91589309  0.49485817  0.75915688     0.08100
H927        H  0.96057197  0.50971502  0.75211778     0.08100
H928        H  0.92554535  0.52532995  0.72474326     0.04900
C929        C  0.77826104  0.42071594  0.62417836    -0.20900
C930        C  0.79793267  0.41926851  0.59294794    -0.07500
C931        C  0.81880767  0.38918392  0.58687262     0.13400
C932        C  0.82019559  0.36218255  0.61244534    -0.21000
C933        C  0.80147454  0.36425928  0.64436535    -0.07500
C934        C  0.77965449  0.39393349  0.64975426     0.13400
C935        C  0.75707174  0.39750909  0.68197905    -0.24300
H936        H  0.76191518  0.44352341  0.62895722     0.14700
H937        H  0.83668676  0.33949209  0.60769967     0.14700
C938        C  0.84076108  0.38598414  0.55425131    -0.24300
H939        H  0.74013205  0.42123749  0.68073251     0.04900
H940        H  0.77379732  0.40003861  0.70569135     0.08100
H941        H  0.73970215  0.37419881  0.68455547     0.08100
H942        H  0.85925176  0.40848586  0.55255255     0.08100
H943        H  0.82357126  0.38572494  0.53071144     0.08100
H944        H  0.85637655  0.36133611  0.55418540     0.04900
C945        C  0.78129868  0.54626367  0.62343189    -0.20900
C946        C  0.79965340  0.54715319  0.59142652    -0.07500
C947        C  0.81964642  0.57747419  0.58347093     0.13400
C948        C  0.82152934  0.60524097  0.60805073    -0.21000
C949        C  0.80432005  0.60363385  0.64079833    -0.07500
C950        C  0.78330761  0.57369309  0.64808371     0.13400
C951        C  0.76221969  0.57029709  0.68137757    -0.24300
H952        H  0.76550905  0.52336539  0.62959121     0.14700
H953        H  0.83736248  0.62809092  0.60189197     0.14700
C954        C  0.84026339  0.58020846  0.54993958    -0.24300
H955        H  0.74566011  0.54625012  0.68142496     0.04900
H956        H  0.74451490  0.59328593  0.68414394     0.08100
H957        H  0.77994617  0.56844668  0.70442458     0.08100
H958        H  0.82219743  0.57956864  0.52708267     0.08100
H959        H  0.85908729  0.55802318  0.54817479     0.08100
H960        H  0.85542242  0.60512625  0.54855637     0.04900
C961        C  0.68403209  0.81180926  0.84349912     0.03500
C962        C  0.68629150  0.77536465  0.83891402    -0.07500
C963        C  0.65850525  0.75332343  0.84897276     0.13400
C964        C  0.62826410  0.76849966  0.86288622    -0.21000
C965        C  0.62539477  0.80513619  0.86662340    -0.07500
C966        C  0.65367075  0.82711802  0.85713449     0.13400
C967        C  0.65129119  0.86660112  0.85943221    -0.24300
H968        H  0.70554345  0.82839287  0.83497148     0.14700
H969        H  0.60677656  0.75170116  0.87092347     0.14700
C970        C  0.66091562  0.71396905  0.84505404    -0.24300
H971        H  0.67509064  0.87958407  0.84877288     0.04900
H972        H  0.64860802  0.87477930  0.88714375     0.08100
H973        H  0.62833154  0.87603669  0.84415254     0.08100
H974        H  0.68341431  0.70408786  0.86072334     0.08100
H975        H  0.66475334  0.70693426  0.81705596     0.08100
H976        H  0.63681939  0.70058375  0.85445901     0.04900
C977        C  0.61849800  0.61707383  0.72931619    -0.20900
C978        C  0.62268325  0.58095400  0.73701243    -0.07500
C979        C  0.65737181  0.56866280  0.74261114     0.13400
C980        C  0.68568313  0.59291595  0.74292354    -0.21000
C981        C  0.68101269  0.62943679  0.73704287    -0.07500
C982        C  0.64657345  0.64110491  0.72881326     0.13400
C983        C  0.63838058  0.67878785  0.71920601    -0.24300
H984        H  0.59260108  0.62719042  0.72380989     0.14700
H985        H  0.71178896  0.58304884  0.74819379     0.14700
C986        C  0.66510045  0.53025792  0.74852849    -0.24300
H987        H  0.61035337  0.68252102  0.71220065     0.04900
H988        H  0.65403412  0.68681852  0.69600452     0.08100
H989        H  0.64394655  0.69635349  0.74178463     0.08100
H990        H  0.65631148  0.51474235  0.72545719     0.08100
H991        H  0.65153595  0.52086947  0.77250417     0.08100
H992        H  0.69358343  0.52536052  0.75206520     0.04900
C993        C  0.95176406  0.97735785  0.52756319    -0.20900
C994        C  0.94443861  0.96000765  0.49576726    -0.07500
C995        C  0.94999441  0.97857555  0.46388594     0.13400
C996        C  0.95353884  0.01520407  0.46513926    -0.21000
C997        C  0.95135734  0.03319111  0.49721823    -0.07500
C998        C  0.95639463  0.01382695  0.52846650     0.13400
C999        C  0.96507156  0.03087976  0.56306524    -0.24300
H1000       H  0.95160457  0.96301669  0.55216130     0.14700
H1001       H  0.95329629  0.02985401  0.44072523     0.14700
C1002       C  0.94998773  0.96109946  0.42834784    -0.24300
H1003       H  0.98866281  0.01811495  0.57448390     0.04900
H1004       H  0.94282970  0.02768792  0.58152701     0.08100
H1005       H  0.97134722  0.05922269  0.56007838     0.08100
H1006       H  0.92298704  0.95347969  0.42062964     0.08100
H1007       H  0.96740000  0.93770581  0.42879003     0.08100
H1008       H  0.95991675  0.97910906  0.40765352     0.04900
C1009       C  0.90340166  0.83138332  0.57182184    -0.20900
C1010       C  0.89085521  0.86512361  0.56471481    -0.07500
C1011       C  0.86805569  0.88178704  0.58858538     0.13400
C1012       C  0.85586468  0.86285016  0.61776213    -0.21000
C1013       C  0.86625011  0.82787696  0.62340499    -0.07500
C1014       C  0.89206272  0.81277329  0.60133389     0.13400
C1015       C  0.90842426  0.77746212  0.60891934    -0.24300
H1016       H  0.92173780  0.81931964  0.55377212     0.14700
H1017       H  0.83705437  0.87485002  0.63532253     0.14700
C1018       C  0.85539182  0.91880791  0.58245385    -0.24300
H1019       H  0.93071794  0.77190159  0.59107162     0.04900
H1020       H  0.88893898  0.75617856  0.60512683     0.08100
H1021       H  0.91863384  0.77691031  0.63623381     0.08100
H1022       H  0.84129683  0.92036910  0.55698030     0.08100
H1023       H  0.87806545  0.93711401  0.58204907     0.08100
H1024       H  0.83725784  0.92757553  0.60344859     0.04900
C1025       C  0.68605406  0.70621296  0.55994292    -0.20900
C1026       C  0.65513732  0.72640580  0.56287851    -0.07500
C1027       C  0.65078025  0.74751685  0.59295987     0.13400
C1028       C  0.67717107  0.74804902  0.61891656    -0.21000
C1029       C  0.70853726  0.72854810  0.61568063    -0.07500
C1030       C  0.71268996  0.70697838  0.58570804     0.13400
C1031       C  0.74471181  0.68430035  0.58075286    -0.24300
H1032       H  0.68976232  0.69018707  0.53673552     0.14700
H1033       H  0.67353141  0.76467272  0.64169852     0.14700
C1034       C  0.61931019  0.77103207  0.59699668    -0.24300
H1035       H  0.74282672  0.66804673  0.55661839     0.04900
H1036       H  0.74780556  0.66618552  0.60343743     0.08100
H1037       H  0.76837850  0.70108058  0.57824487     0.08100
H1038       H  0.59509180  0.75488809  0.59791392     0.08100
H1039       H  0.61782376  0.78964606  0.57455947     0.08100
H1040       H  0.62062746  0.78674339  0.62151818     0.04900
C1041       C  0.66689392  0.72437330  0.37694956    -0.20900
C1042       C  0.70032923  0.73985494  0.38061223    -0.07500
C1043       C  0.70813895  0.75760261  0.41231228     0.13400
C1044       C  0.68330876  0.75782666  0.43956194    -0.21000
C1045       C  0.65077571  0.74034908  0.43677419    -0.07500
C1046       C  0.64226226  0.72402236  0.40457401     0.13400
C1047       C  0.60800191  0.70501102  0.39954846    -0.24300
H1048       H  0.66021571  0.71170453  0.35249139     0.14700
H1049       H  0.68987093  0.77109210  0.46387288     0.14700
C1050       C  0.74225940  0.77697381  0.41762424    -0.24300
H1051       H  0.60604964  0.69290373  0.37311624     0.04900
H1052       H  0.58591790  0.72377797  0.40234748     0.08100
H1053       H  0.60546725  0.68371600  0.41934938     0.08100
H1054       H  0.74601949  0.79653623  0.39628971     0.08100
H1055       H  0.76443405  0.75811701  0.41788693     0.08100
H1056       H  0.74282823  0.79134344  0.44298293     0.04900
C1057       C  0.87497724  0.81396742  0.39839377    -0.20900
C1058       C  0.85164809  0.83288524  0.37681752    -0.07500
C1059       C  0.84436085  0.86844793  0.38465545     0.13400
C1060       C  0.85981115  0.88371007  0.41457925    -0.21000
C1061       C  0.88153790  0.86392298  0.43696334    -0.07500
C1062       C  0.88968322  0.82885878  0.42848054     0.13400
C1063       C  0.91427988  0.80717733  0.45077690    -0.24300
H1064       H  0.88144020  0.78697543  0.39190746     0.14700
H1065       H  0.85397869  0.91079648  0.42123923     0.14700
C1066       C  0.81922116  0.88974860  0.36275181    -0.24300
H1067       H  0.91893516  0.78076655  0.43927848     0.04900
H1068       H  0.90301827  0.80320457  0.47729273     0.08100
H1069       H  0.93994903  0.82075787  0.45311079     0.08100
H1070       H  0.79332874  0.87641003  0.36178491     0.08100
H1071       H  0.82957071  0.89279214  0.33573845     0.08100
H1072       H  0.81529960  0.91649739  0.37375496     0.04900
C1073       C  0.59277556  0.87031607  0.01803527    -0.20900
C1074       C  0.55994307  0.86765641  0.03425791    -0.07500
C1075       C  0.52978284  0.87522888  0.01402604     0.13400
C1076       C  0.53222688  0.87336393  0.97751074    -0.21000
C1077       C  0.56441581  0.86617045  0.96113099    -0.07500
C1078       C  0.59559896  0.86917076  0.98144860     0.13400
C1079       C  0.63189252  0.86884001  0.96588673    -0.24300
H1080       H  0.61638821  0.86832498  0.03378390     0.14700
H1081       H  0.50835904  0.87492284  0.96209484     0.14700
C1082       C  0.49456150  0.88321254  0.02987762    -0.24300
H1083       H  0.65225557  0.87488430  0.98587957     0.04900
H1084       H  0.63375531  0.88932499  0.94523707     0.08100
H1085       H  0.63827654  0.84250982  0.95517463     0.08100
H1086       H  0.49649643  0.88912300  0.05830605     0.08100
H1087       H  0.47645009  0.86074073  0.02556739     0.08100
H1088       H  0.48337372  0.90701902  0.01718924     0.04900
C1089       C  0.65053422  0.74644868  0.15321846    -0.20900
C1090       C  0.68060969  0.76742557  0.15184787    -0.07500
C1091       C  0.68030749  0.79900885  0.13247750     0.13400
C1092       C  0.64919238  0.80979257  0.11630304    -0.21000
C1093       C  0.61819601  0.78998216  0.11928668    -0.07500
C1094       C  0.61932001  0.75700553  0.13693096     0.13400
C1095       C  0.58838493  0.73233788  0.13862728    -0.24300
H1096       H  0.65131621  0.72202364  0.16794899     0.14700
H1097       H  0.64884680  0.83476483  0.10256564     0.14700
C1098       C  0.71199354  0.82260632  0.13080644    -0.24300
H1099       H  0.59539773  0.70683449  0.15106339     0.04900
H1100       H  0.57896213  0.72658387  0.11167809     0.08100
H1101       H  0.56707113  0.74392611  0.15459725     0.08100
H1102       H  0.73395752  0.80872301  0.11777622     0.08100
H1103       H  0.71992679  0.83019222  0.15779424     0.08100
H1104       H  0.70667279  0.84704064  0.11571941     0.04900
C1105       C  0.62195518  0.60844803  0.27177822    -0.20900
C1106       C  0.62242851  0.57974711  0.24853359    -0.07500
C1107       C  0.65242495  0.57486792  0.22719449     0.13400
C1108       C  0.68053453  0.59896904  0.22964426    -0.21000
C1109       C  0.67918861  0.62867392  0.25179123    -0.07500
C1110       C  0.64960411  0.63278932  0.27368684     0.13400
C1111       C  0.64732794  0.66202422  0.30016900    -0.24300
H1112       H  0.59929644  0.61216927  0.28847562     0.14700
H1113       H  0.70322525  0.59517020  0.21301228     0.14700
C1114       C  0.65528808  0.54602995  0.20023372    -0.24300
H1115       H  0.62362031  0.65965127  0.31684012     0.04900
H1116       H  0.64590846  0.68787436  0.28671351     0.08100
H1117       H  0.67064137  0.66106718  0.31763022     0.08100
H1118       H  0.63142602  0.52972745  0.19791534     0.08100
H1119       H  0.67761890  0.52856853  0.20701755     0.08100
H1120       H  0.66013530  0.55785458  0.17402475     0.04900
C1121       C  0.90436744  0.57949952  0.23918393    -0.20900
C1122       C  0.90708061  0.61062502  0.21974358    -0.07500
C1123       C  0.92739045  0.61121565  0.18887380     0.13400
C1124       C  0.94318877  0.58006075  0.17739792    -0.21000
C1125       C  0.93890771  0.54808876  0.19562831    -0.07500
C1126       C  0.91995888  0.54818497  0.22773176     0.13400
C1127       C  0.91560937  0.51587980  0.25034950    -0.24300
H1128       H  0.88890632  0.57952040  0.26302779     0.14700
H1129       H  0.95769525  0.58057079  0.15303411     0.14700
C1130       C  0.93075524  0.64398621  0.16673316    -0.24300
H1131       H  0.90227798  0.52199073  0.27549544     0.04900
H1132       H  0.94169583  0.50476416  0.25687954     0.08100
H1133       H  0.89922010  0.49602217  0.23669529     0.08100
H1134       H  0.94409194  0.66498441  0.18194150     0.08100
H1135       H  0.90438477  0.65321040  0.15850239     0.08100
H1136       H  0.94637812  0.63925636  0.14264056     0.04900
C1137       C  0.92966133  0.37304147  0.22417282    -0.20900
C1138       C  0.90379984  0.35837274  0.20259062    -0.07500
C1139       C  0.89683073  0.37308469  0.16922094     0.13400
C1140       C  0.91457654  0.40358046  0.15900692    -0.21000
C1141       C  0.93849194  0.41972689  0.18165938    -0.07500
C1142       C  0.94706119  0.40391064  0.21409580     0.13400
C1143       C  0.97436530  0.41962015  0.23798625    -0.24300
H1144       H  0.93510552  0.36121204  0.24951181     0.14700
H1145       H  0.90868580  0.41573719  0.13391868     0.14700
C1146       C  0.87050150  0.35685153  0.14452979    -0.24300
H1147       H  0.97828390  0.40344999  0.26198102     0.04900
H1148       H  0.96622380  0.44633182  0.24625178     0.08100
H1149       H  0.99977559  0.42134734  0.22395995     0.08100
H1150       H  0.84395450  0.35815565  0.15614925     0.08100
H1151       H  0.87754726  0.32897869  0.13957621     0.08100
H1152       H  0.86962669  0.37077389  0.11889467     0.04900
C1153       C  0.82129883  0.57456117  0.40992297    -0.20900
C1154       C  0.79736690  0.54751843  0.40238590    -0.07500
C1155       C  0.77444934  0.55156515  0.37325175     0.13400
C1156       C  0.77696094  0.58168513  0.35193532    -0.21000
C1157       C  0.80163937  0.60823845  0.35869992    -0.07500
C1158       C  0.82372654  0.60484758  0.38855497     0.13400
C1159       C  0.85087049  0.63229956  0.39734081    -0.24300
H1160       H  0.83897939  0.57145202  0.43201026     0.14700
H1161       H  0.75948223  0.58448793  0.32963000     0.14700
C1162       C  0.74667316  0.52458726  0.36471181    -0.24300
H1163       H  0.86740666  0.62425932  0.41998736     0.04900
H1164       H  0.83786308  0.65739307  0.40442062     0.08100
H1165       H  0.86835583  0.63659200  0.37451287     0.08100
H1166       H  0.73015723  0.51969151  0.38816133     0.08100
H1167       H  0.75891009  0.49963588  0.35603171     0.08100
H1168       H  0.72919996  0.53356990  0.34313584     0.04900
C1169       C  0.78142499  0.36240899  0.38006112    -0.20900
C1170       C  0.80270071  0.36425701  0.34991769    -0.07500
C1171       C  0.82484245  0.39370901  0.34552310     0.13400
C1172       C  0.82434421  0.42084523  0.37054650    -0.21000
C1173       C  0.80254624  0.41958736  0.40029602    -0.07500
C1174       C  0.78091236  0.38974474  0.40516918     0.13400
C1175       C  0.75635766  0.38716914  0.43591979    -0.24300
H1176       H  0.76468517  0.33964252  0.38369421     0.14700
H1177       H  0.84107478  0.44357252  0.36667537     0.14700
C1178       C  0.84991763  0.39624132  0.31509362    -0.24300
H1179       H  0.74039950  0.36274167  0.43495542     0.04900
H1180       H  0.73816064  0.40995055  0.43586309     0.08100
H1181       H  0.77158727  0.38693615  0.46076567     0.08100
H1182       H  0.83517265  0.39755530  0.29000504     0.08100
H1183       H  0.86746494  0.37295608  0.31488172     0.08100
H1184       H  0.86660113  0.42013803  0.31676624     0.04900
C1185       C  0.45972846  0.63033205  0.72209130    -0.20900
C1186       C  0.43604554  0.62707048  0.74999835    -0.07500
C1187       C  0.44119782  0.59920481  0.77444823     0.13400
C1188       C  0.47019590  0.57623192  0.77072261    -0.21000
C1189       C  0.49439957  0.58021806  0.74324513    -0.07500
C1190       C  0.48844826  0.60733704  0.71823478     0.13400
C1191       C  0.51172209  0.61168251  0.68660742    -0.24300
H1192       H  0.45550982  0.65092891  0.70283588     0.14700
H1193       H  0.47465929  0.55578891  0.79007192     0.14700
C1194       C  0.41717838  0.59445811  0.80546115    -0.24300
H1195       H  0.50150505  0.63199944  0.66827547     0.04900
H1196       H  0.51334370  0.58643484  0.67208540     0.08100
H1197       H  0.53829215  0.62008530  0.69470827     0.08100
H1198       H  0.39042921  0.58745434  0.79639527     0.08100
H1199       H  0.41614253  0.61914198  0.82098749     0.08100
H1200       H  0.42631905  0.57305576  0.82311550     0.04900
C1201       C  0.46371406  0.75141152  0.84888498    -0.20900
C1202       C  0.43373117  0.77248974  0.84931344    -0.07500
C1203       C  0.43502460  0.80625943  0.86457190     0.13400
C1204       C  0.46726975  0.81927433  0.87654828    -0.21000
C1205       C  0.49793461  0.79900377  0.87411403    -0.07500
C1206       C  0.49575242  0.76392474  0.86162569     0.13400
C1207       C  0.52657557  0.73910191  0.86214892    -0.24300
H1208       H  0.46217429  0.72527343  0.83758704     0.14700
H1209       H  0.46869117  0.84574112  0.88702214     0.14700
C1210       C  0.40278186  0.82893407  0.86724633    -0.24300
H1211       H  0.51878325  0.71190671  0.85485347     0.04900
H1212       H  0.53804546  0.73805338  0.88894134     0.08100
H1213       H  0.54661930  0.74772045  0.84296802     0.08100
H1214       H  0.38321655  0.81552140  0.88407339     0.08100
H1215       H  0.39136310  0.83349443  0.84081014     0.08100
H1216       H  0.40866466  0.85493430  0.87916667     0.04900
C1217       C  0.04093874  0.45516642  0.89779847    -0.20900
C1218       C  0.02532066  0.48693482  0.88699415    -0.07500
C1219       C  0.04463435  0.51865279  0.89160219     0.13400
C1220       C  0.08055803  0.51644788  0.89871044    -0.21000
C1221       C  0.09753580  0.48370469  0.89928542    -0.07500
C1222       C  0.07688176  0.45346744  0.90492546     0.13400
C1223       C  0.09203933  0.41929287  0.91760432    -0.24300
H1224       H  0.02579036  0.43104349  0.89837737     0.14700
H1225       H  0.09595715  0.54040477  0.89836057     0.14700
C1226       C  0.02916687  0.55485915  0.88647282    -0.24300
H1227       H  0.12012508  0.42203543  0.92465957     0.04900
H1228       H  0.08865023  0.39879475  0.89716174     0.08100
H1229       H  0.07802545  0.41079238  0.94167295     0.08100
H1230       H  0.00482526  0.55751503  0.90212780     0.08100
H1231       H  0.02379929  0.55981573  0.85827486     0.08100
H1232       H  0.04746657  0.57583853  0.89525592     0.04900
C1233       C  0.19254521  0.54614432  0.79497370    -0.20900
C1234       C  0.18604199  0.54549116  0.83129922    -0.07500
C1235       C  0.19150496  0.57639485  0.85130733     0.13400
C1236       C  0.20489605  0.60649481  0.83469455    -0.21000
C1237       C  0.21267587  0.60638309  0.79878194    -0.07500
C1238       C  0.20565594  0.57631034  0.77847564     0.13400
C1239       C  0.21174723  0.57624020  0.73940303    -0.24300
H1240       H  0.18740036  0.52288175  0.77935567     0.14700
H1241       H  0.21074840  0.62978416  0.85005377     0.14700
C1242       C  0.18498833  0.57746680  0.89028951    -0.24300
H1243       H  0.20399963  0.55081503  0.72732455     0.04900
H1244       H  0.23988484  0.58075376  0.73365464     0.08100
H1245       H  0.19596090  0.59740323  0.72696928     0.08100
H1246       H  0.20023920  0.55640222  0.90354193     0.08100
H1247       H  0.15665963  0.57393684  0.89569539     0.08100
H1248       H  0.19295280  0.60306350  0.90187476     0.04900
C1249       C  0.33559106  0.54848192  0.62845822    -0.20900
C1250       C  0.31669035  0.54973790  0.59669361    -0.07500
C1251       C  0.29571033  0.57966287  0.58982043     0.13400
C1252       C  0.29357578  0.60671931  0.61516875    -0.21000
C1253       C  0.31164896  0.60477779  0.64755470    -0.07500
C1254       C  0.33341924  0.57524956  0.65378895     0.13400
C1255       C  0.35524836  0.57181417  0.68667480    -0.24300
H1256       H  0.35204707  0.52586313  0.63383037     0.14700
H1257       H  0.27715658  0.62936629  0.60981804     0.14700
C1258       C  0.27466072  0.58279679  0.55649134    -0.24300
H1259       H  0.37228590  0.54814980  0.68604141     0.04900
H1260       H  0.33798943  0.56922325  0.70992063     0.08100
H1261       H  0.37250231  0.59517341  0.68961490     0.08100
H1262       H  0.25644264  0.56013532  0.55407228     0.08100
H1263       H  0.29260585  0.58335590  0.53366803     0.08100
H1264       H  0.25884646  0.60731332  0.55587217     0.04900
C1265       C  0.28996967  0.85250079  0.61119893    -0.20900
C1266       C  0.26563880  0.83069152  0.62802778    -0.07500
C1267       C  0.23095466  0.82832170  0.61519750     0.13400
C1268       C  0.22191557  0.84653985  0.58466109    -0.21000
C1269       C  0.24672778  0.86657563  0.56653848    -0.07500
C1270       C  0.28090372  0.87051509  0.58033582     0.13400
C1271       C  0.30757323  0.89387032  0.56290975    -0.24300
H1272       H  0.31637387  0.85450901  0.62160902     0.14700
H1273       H  0.19551332  0.84420033  0.57429535     0.14700
C1274       C  0.20281481  0.80687718  0.63287175    -0.24300
H1275       H  0.33245884  0.89494962  0.57807584     0.04900
H1276       H  0.29711891  0.92103468  0.56068492     0.08100
H1277       H  0.31365807  0.88372831  0.53642030     0.08100
H1278       H  0.21215254  0.79294247  0.65662808     0.08100
H1279       H  0.19243379  0.78708096  0.61417996     0.08100
H1280       H  0.18101479  0.82446104  0.64080832     0.04900
C1281       C  0.42668189  0.75200326  0.56320574    -0.20900
C1282       C  0.46086856  0.73817182  0.56729652    -0.07500
C1283       C  0.47033643  0.72489548  0.60071765     0.13400
C1284       C  0.44525206  0.72436962  0.62803334    -0.21000
C1285       C  0.41059910  0.73667727  0.62327790    -0.07500
C1286       C  0.40163308  0.75139436  0.59031491     0.13400
C1287       C  0.36604440  0.76731597  0.58343467    -0.24300
H1288       H  0.41910409  0.76313243  0.53812289     0.14700
H1289       H  0.45268588  0.71351485  0.65328246     0.14700
C1290       C  0.50635237  0.71033939  0.60770912    -0.24300
H1291       H  0.36436438  0.77938249  0.55691776     0.04900
H1292       H  0.36060849  0.78824952  0.60298455     0.08100
H1293       H  0.34549321  0.74671559  0.58486899     0.08100
H1294       H  0.52625240  0.73129481  0.60387927     0.08100
H1295       H  0.51171668  0.68810977  0.58964766     0.08100
H1296       H  0.50901514  0.70044519  0.63502781     0.04900
C1297       C  0.43605248  0.37029380  0.76906039    -0.20900
C1298       C  0.43569912  0.34184164  0.74535009    -0.07500
C1299       C  0.46302895  0.33909813  0.72054446     0.13400
C1300       C  0.49023343  0.36401086  0.72088953    -0.21000
C1301       C  0.49154629  0.39149684  0.74560125    -0.07500
C1302       C  0.46387064  0.39469016  0.77003077     0.13400
C1303       C  0.46349338  0.42201162  0.79864003    -0.24300
H1304       H  0.41505594  0.37277209  0.78801866     0.14700
H1305       H  0.51127227  0.36155187  0.70201543     0.14700
C1306       C  0.46348441  0.31050230  0.69311250    -0.24300
H1307       H  0.44006101  0.43903154  0.79549215     0.04900
H1308       H  0.48700407  0.43902582  0.79874960     0.08100
H1309       H  0.46216335  0.40875544  0.82458740     0.08100
H1310       H  0.43888694  0.31129800  0.67748857     0.08100
H1311       H  0.46626753  0.28436297  0.70578866     0.08100
H1312       H  0.48579764  0.31361459  0.67470928     0.04900
C1313       C  0.43793893  0.15865767  0.84548035    -0.20900
C1314       C  0.43326308  0.19512624  0.84404491    -0.07500
C1315       C  0.45922370  0.21789826  0.85722039     0.13400
C1316       C  0.48982888  0.20343053  0.87154700    -0.21000
C1317       C  0.49481982  0.16684559  0.87256422    -0.07500
C1318       C  0.46859487  0.14412195  0.85945749     0.13400
C1319       C  0.47355521  0.10480000  0.85832538    -0.24300
H1320       H  0.41805677  0.14158131  0.83432635     0.14700
H1321       H  0.50993895  0.22068085  0.88198656     0.14700
C1322       C  0.45466114  0.25725966  0.85581122    -0.24300
H1323       H  0.45120307  0.09140290  0.84522067     0.04900
H1324       H  0.47559240  0.09409139  0.88526035     0.08100
H1325       H  0.49775177  0.09838046  0.84354757     0.08100
H1326       H  0.43064894  0.26486671  0.87034699     0.08100
H1327       H  0.45217443  0.26604174  0.82811970     0.08100
H1328       H  0.47729931  0.27122238  0.86777480     0.04900
C1329       C  0.29199132  0.36710612  0.61481860    -0.20900
C1330       C  0.31396700  0.36640745  0.64461171    -0.07500
C1331       C  0.33918254  0.39345144  0.64870457     0.13400
C1332       C  0.34089514  0.42072998  0.62377382    -0.21000
C1333       C  0.31830358  0.42197778  0.59454502    -0.07500
C1334       C  0.29383431  0.39445674  0.58980878     0.13400
C1335       C  0.26877433  0.39444102  0.55922010    -0.24300
H1336       H  0.27282675  0.34633136  0.61134676     0.14700
H1337       H  0.35973602  0.44177321  0.62748006     0.14700
C1338       C  0.36497478  0.39345609  0.67877861    -0.24300
H1339       H  0.25051417  0.37169959  0.56024274     0.04900
H1340       H  0.28365758  0.39277603  0.53429186     0.08100
H1341       H  0.25288809  0.41890384  0.55936241     0.08100
H1342       H  0.38418240  0.41530730  0.67655888     0.08100
H1343       H  0.37986449  0.36835783  0.67910258     0.08100
H1344       H  0.35096059  0.39679831  0.70402344     0.04900
C1345       C  0.19113443  0.42000858  0.79088108    -0.20900
C1346       C  0.18130761  0.41754791  0.82639720    -0.07500
C1347       C  0.18527608  0.38507056  0.84420587     0.13400
C1348       C  0.20035308  0.35661699  0.82648526    -0.21000
C1349       C  0.21184364  0.36001605  0.79181127    -0.07500
C1350       C  0.20676216  0.39173173  0.77349564     0.13400
C1351       C  0.21811766  0.39582540  0.73583132    -0.24300
H1352       H  0.18755494  0.44459487  0.77688210     0.14700
H1353       H  0.20488475  0.33207058  0.84030164     0.14700
C1354       C  0.17536700  0.38038995  0.88208859    -0.24300
H1355       H  0.21089855  0.42202015  0.72509014     0.04900
H1356       H  0.20528362  0.37539621  0.71942304     0.08100
H1357       H  0.24698527  0.39303057  0.73379583     0.08100
H1358       H  0.14663580  0.38262122  0.88457592     0.08100
H1359       H  0.18859362  0.40052263  0.89853455     0.08100
H1360       H  0.18288991  0.35402705  0.89223682     0.04900
C1361       C  0.16106310  0.00295363  0.47016869    -0.20900
C1362       C  0.16605834  0.02154763  0.50164498    -0.07500
C1363       C  0.16284317  0.00286229  0.53363793     0.13400
C1364       C  0.16705620  0.96634262  0.53315825    -0.21000
C1365       C  0.17250829  0.94869334  0.50127193    -0.07500
C1366       C  0.16330002  0.96621749  0.46980553     0.13400
C1367       C  0.15803845  0.94736620  0.43547192    -0.24300
H1368       H  0.15935179  0.01688234  0.44538942     0.14700
H1369       H  0.16999400  0.95254296  0.55789799     0.14700
C1370       C  0.15797920  0.02063746  0.56859008    -0.24300
H1371       H  0.13277531  0.95571205  0.42358327     0.04900
H1372       H  0.15655036  0.91843882  0.43901258     0.08100
H1373       H  0.17965090  0.95398379  0.41715575     0.08100
H1374       H  0.15097569  0.04880412  0.56563254     0.08100
H1375       H  0.18227700  0.01814820  0.58450456     0.08100
H1376       H  0.13606805  0.00788334  0.58290525     0.04900
C1377       C  0.22593491  0.10354034  0.59164486    -0.20900
C1378       C  0.24252510  0.10840971  0.55913568    -0.07500
C1379       C  0.27516445  0.12641492  0.55811416     0.13400
C1380       C  0.28821767  0.14187418  0.58887483    -0.21000
C1381       C  0.27038424  0.13878556  0.62077988    -0.07500
C1382       C  0.23962093  0.11821251  0.62247746     0.13400
C1383       C  0.21999786  0.11339444  0.65631402    -0.24300
H1384       H  0.20141422  0.08921535  0.59286737     0.14700
H1385       H  0.31225063  0.15708188  0.58794481     0.14700
C1386       C  0.29698047  0.12908676  0.52523389    -0.24300
H1387       H  0.19543727  0.09818377  0.65254641     0.04900
H1388       H  0.21318924  0.13959294  0.66707391     0.08100
H1389       H  0.23649185  0.09888703  0.67549223     0.08100
H1390       H  0.28397735  0.14635585  0.50567959     0.08100
H1391       H  0.30117754  0.10246280  0.51403247     0.08100
H1392       H  0.32318525  0.14064594  0.53062716     0.04900
C1393       C  0.24405640  0.09294096  0.40857349    -0.20900
C1394       C  0.22495024  0.11323669  0.43255145    -0.07500
C1395       C  0.22019068  0.14941366  0.42659184     0.13400
C1396       C  0.23668533  0.16511747  0.39797729    -0.21000
C1397       C  0.25761485  0.14549468  0.37479191    -0.07500
C1398       C  0.26029696  0.10861451  0.37938583     0.13400
C1399       C  0.28107232  0.08588743  0.35464554    -0.24300
H1400       H  0.24746978  0.06505951  0.41353197     0.14700
H1401       H  0.23312916  0.19310317  0.39373397     0.14700
C1402       C  0.19740628  0.17143271  0.45026627    -0.24300
H1403       H  0.28181789  0.05804488  0.36347981     0.04900
H1404       H  0.30845548  0.09557534  0.35307630     0.08100
H1405       H  0.26889761  0.08631177  0.32817011     0.08100
H1406       H  0.20856132  0.17229028  0.47715262     0.08100
H1407       H  0.17064693  0.15998170  0.45127242     0.08100
H1408       H  0.19513138  0.19895167  0.44069738     0.04900
C1409       C  0.43436317  0.26539072  0.56329643    -0.20900
C1410       C  0.46466422  0.24423411  0.56365559    -0.07500
C1411       C  0.47086658  0.22277356  0.59338254     0.13400
C1412       C  0.44628278  0.22232470  0.62114661    -0.21000
C1413       C  0.41513981  0.24243498  0.62004892    -0.07500
C1414       C  0.40981925  0.26500637  0.59087842     0.13400
C1415       C  0.37879312  0.28950576  0.58874699    -0.24300
H1416       H  0.42950587  0.28212543  0.54075144     0.14700
H1417       H  0.45100034  0.20528190  0.64348016     0.14700
C1418       C  0.50238090  0.19901326  0.59524286    -0.24300
H1419       H  0.38022143  0.30699689  0.56543043     0.04900
H1420       H  0.37794003  0.30648410  0.61243614     0.08100
H1421       H  0.35414004  0.27418948  0.58652532     0.08100
H1422       H  0.52672723  0.21498913  0.59469641     0.08100
H1423       H  0.50220431  0.18059613  0.57264531     0.08100
H1424       H  0.50264919  0.18312668  0.61972153     0.04900
C1425       C  0.42709575  0.22443814  0.44036078    -0.20900
C1426       C  0.46180304  0.23663165  0.43593489    -0.07500
C1427       C  0.47196822  0.24745665  0.40184222     0.13400
C1428       C  0.44725435  0.24652904  0.37403094    -0.21000
C1429       C  0.41205957  0.23610444  0.37905002    -0.07500
C1430       C  0.40231030  0.22417392  0.41289302     0.13400
C1431       C  0.36610975  0.21012841  0.42047290    -0.24300
H1432       H  0.41888557  0.21516455  0.46594255     0.14700
H1433       H  0.45545494  0.25469903  0.34816610     0.14700
C1434       C  0.50827940  0.26112573  0.39458286    -0.24300
H1435       H  0.36399822  0.19954942  0.44756980     0.04900
H1436       H  0.35973477  0.18840959  0.40205708     0.08100
H1437       H  0.34644779  0.23147014  0.41795018     0.08100
H1438       H  0.52789769  0.24022172  0.39981788     0.08100
H1439       H  0.51375547  0.28429900  0.41144172     0.08100
H1440       H  0.51133737  0.26944043  0.36681153     0.04900
C1441       C  0.43361493  0.59608748  0.25786737    -0.20900
C1442       C  0.43765381  0.63148444  0.24725703    -0.07500
C1443       C  0.47032992  0.64157603  0.23277783     0.13400
C1444       C  0.49794936  0.61705266  0.23128539    -0.21000
C1445       C  0.49466984  0.58221618  0.24377840    -0.07500
C1446       C  0.46151924  0.57156653  0.25675602     0.13400
C1447       C  0.45535717  0.53488905  0.27043531    -0.24300
H1448       H  0.40845119  0.58749527  0.26755225     0.14700
H1449       H  0.52272135  0.62552464  0.22031272     0.14700
C1450       C  0.47638105  0.67781254  0.21770089    -0.24300
H1451       H  0.42826969  0.53150152  0.28049301     0.04900
H1452       H  0.47374657  0.52923741  0.29234606     0.08100
H1453       H  0.45920228  0.51548426  0.24905789     0.08100
H1454       H  0.47533722  0.69783760  0.23881494     0.08100
H1455       H  0.45630865  0.68373664  0.19741132     0.08100
H1456       H  0.50247942  0.68009881  0.20506474     0.04900
C1457       C  0.47344563  0.82205825  0.14057197    -0.20900
C1458       C  0.49034725  0.79937032  0.11737731    -0.07500
C1459       C  0.47596665  0.76610091  0.10953902     0.13400
C1460       C  0.44549578  0.75532241  0.12687561    -0.21000
C1461       C  0.43003437  0.77711911  0.15196604    -0.07500
C1462       C  0.44350137  0.81109996  0.15837452     0.13400
C1463       C  0.42671179  0.83547808  0.18449692    -0.24300
H1464       H  0.48468199  0.84770500  0.14599419     0.14700
H1465       H  0.43463969  0.72940327  0.12203940     0.14700
C1466       C  0.49288393  0.74209708  0.08316880    -0.24300
H1467       H  0.43955438  0.86170415  0.18489340     0.04900
H1468       H  0.42892341  0.82413877  0.21118391     0.08100
H1469       H  0.39865964  0.83917137  0.17767269     0.08100
H1470       H  0.51965672  0.73505505  0.09201079     0.08100
H1471       H  0.49444843  0.75558567  0.05735930     0.08100
H1472       H  0.47776794  0.71735969  0.07969679     0.04900
C1473       C  0.40462198  0.71536947  0.41012150    -0.20900
C1474       C  0.41605907  0.73187079  0.37921410    -0.07500
C1475       C  0.45130713  0.74452372  0.37839115     0.13400
C1476       C  0.47272856  0.74210269  0.40867405    -0.21000
C1477       C  0.46048067  0.72714536  0.44001122    -0.07500
C1478       C  0.42608434  0.71245857  0.44008835     0.13400
C1479       C  0.41153786  0.69268601  0.47123565    -0.24300
H1480       H  0.37840312  0.70444171  0.41096752     0.14700
H1481       H  0.49899126  0.75295441  0.40813797     0.14700
C1482       C  0.46670410  0.76154925  0.34625349    -0.24300
H1483       H  0.38652082  0.67917602  0.46478568     0.04900
H1484       H  0.40581523  0.71102928  0.49306875     0.08100
H1485       H  0.43043876  0.67222621  0.47989854     0.08100
H1486       H  0.45030057  0.78417242  0.33839148     0.08100
H1487       H  0.46812963  0.74221920  0.32451130     0.08100
H1488       H  0.49368546  0.77148266  0.35099475     0.04900
C1489       C  0.23178166  0.87133825  0.40820991    -0.20900
C1490       C  0.25399224  0.87145082  0.43779585    -0.07500
C1491       C  0.28837715  0.85766709  0.43453692     0.13400
C1492       C  0.29824269  0.84146139  0.40307543    -0.21000
C1493       C  0.27512848  0.83938240  0.37462102    -0.07500
C1494       C  0.24196489  0.85554229  0.37663001     0.13400
C1495       C  0.21659661  0.85449538  0.34623700    -0.24300
H1496       H  0.20565463  0.88226462  0.41013502     0.14700
H1497       H  0.32389529  0.82940066  0.40091827     0.14700
C1498       C  0.31513088  0.86008085  0.46357069    -0.24300
H1499       H  0.19138065  0.86754105  0.35267139     0.04900
H1500       H  0.21091564  0.82677798  0.33907189     0.08100
H1501       H  0.22805583  0.86829556  0.32328698     0.08100
H1502       H  0.30740606  0.84304778  0.48588322     0.08100
H1503       H  0.31772920  0.88784412  0.47221431     0.08100
H1504       H  0.34139279  0.85110749  0.45483154     0.04900
C1505       C  0.03632653  0.45925652  0.10385526    -0.20900
C1506       C  0.01916596  0.49087491  0.11194442    -0.07500
C1507       C  0.03747344  0.52271625  0.10640584     0.13400
C1508       C  0.07407247  0.52171850  0.10513411    -0.21000
C1509       C  0.09201927  0.48954561  0.10819918    -0.07500
C1510       C  0.07292132  0.45810247  0.10190666     0.13400
C1511       C  0.09013664  0.42289321  0.09626826    -0.24300
H1512       H  0.02187035  0.43470440  0.10396486     0.14700
H1513       H  0.08836534  0.54633058  0.10529703     0.14700
C1514       C  0.01958204  0.55789771  0.10367297    -0.24300
H1515       H  0.07135827  0.40356566  0.08505289     0.04900
H1516       H  0.09959426  0.41183733  0.12150980     0.08100
H1517       H  0.11204874  0.42565580  0.07736890     0.08100
H1518       H  0.02609731  0.57421147  0.12694873     0.08100
H1519       H  0.99075170  0.55523730  0.10117782     0.08100
H1520       H  0.02875809  0.57168557  0.07968496     0.04900
C1521       C  0.19633803  0.54989084  0.21198143    -0.20900
C1522       C  0.17878717  0.55357482  0.17961647    -0.07500
C1523       C  0.17461489  0.58773087  0.16512146     0.13400
C1524       C  0.19014811  0.61649940  0.18226462    -0.21000
C1525       C  0.20945139  0.61198623  0.21332760    -0.07500
C1526       C  0.21145646  0.57852884  0.22907062     0.13400
C1527       C  0.22920851  0.57199881  0.26392763    -0.24300
H1528       H  0.19861740  0.52427102  0.22430364     0.14700
H1529       H  0.18873880  0.64242309  0.17043650     0.14700
C1530       C  0.15517603  0.59428921  0.13126310    -0.24300
H1531       H  0.21043722  0.55914653  0.28210697     0.04900
H1532       H  0.23830277  0.59642766  0.27691687     0.08100
H1533       H  0.25204066  0.55432003  0.26015184     0.08100
H1534       H  0.12715764  0.58732313  0.13456205     0.08100
H1535       H  0.16690001  0.57852675  0.10978693     0.08100
H1536       H  0.15623828  0.62240738  0.12332397     0.04900
C1537       C  0.20764531  0.36832872  0.17067837    -0.20900
C1538       C  0.21101182  0.36663322  0.20725785    -0.07500
C1539       C  0.19925740  0.39453234  0.22830940     0.13400
C1540       C  0.18421373  0.42392548  0.21210927    -0.21000
C1541       C  0.18135288  0.42604093  0.17537850    -0.07500
C1542       C  0.19305685  0.39791421  0.15435601     0.13400
C1543       C  0.19236761  0.39992836  0.11488311    -0.24300
H1544       H  0.21801195  0.34711379  0.15479277     0.14700
H1545       H  0.17526042  0.44568366  0.22812285     0.14700
C1546       C  0.20322684  0.39343614  0.26763436    -0.24300
H1547       H  0.20449025  0.37636897  0.10270750     0.04900
H1548       H  0.20711636  0.42346789  0.10593756     0.08100
H1549       H  0.16495180  0.40156470  0.10545318     0.08100
H1550       H  0.23137511  0.39135711  0.27472441     0.08100
H1551       H  0.18897762  0.37029192  0.27823284     0.08100
H1552       H  0.19253095  0.41746577  0.28021958     0.04900
C1553       C  0.33452647  0.55186560  0.37530889    -0.20900
C1554       C  0.31519795  0.55284790  0.40660478    -0.07500
C1555       C  0.29556138  0.58333433  0.41440975     0.13400
C1556       C  0.29536655  0.61161734  0.39043595    -0.21000
C1557       C  0.31337506  0.60986511  0.35821938    -0.07500
C1558       C  0.33390120  0.57964981  0.35111345     0.13400
C1559       C  0.35630902  0.57663535  0.31875197    -0.24300
H1560       H  0.34992572  0.52866547  0.36938666     0.14700
H1561       H  0.28040825  0.63495207  0.39668128     0.14700
C1562       C  0.27359350  0.58562821  0.44705811    -0.24300
H1563       H  0.37401295  0.59976173  0.31717515     0.04900
H1564       H  0.33963581  0.57504269  0.29491491     0.08100
H1565       H  0.37288295  0.55263105  0.31920606     0.08100
H1566       H  0.29077112  0.58431233  0.47051012     0.08100
H1567       H  0.25449631  0.56358345  0.44768633     0.08100
H1568       H  0.25865627  0.61066741  0.44825980     0.04900
C1569       C  0.33134830  0.39809004  0.40890345    -0.20900
C1570       C  0.30714100  0.42547544  0.40404629    -0.07500
C1571       C  0.28333856  0.42348779  0.37536446     0.13400
C1572       C  0.28508680  0.39497561  0.35197067    -0.21000
C1573       C  0.30967868  0.36802543  0.35635156    -0.07500
C1574       C  0.33295599  0.36942292  0.38541642     0.13400
C1575       C  0.36053852  0.34155620  0.39089431    -0.24300
H1576       H  0.34990926  0.39976883  0.43041170     0.14700
H1577       H  0.26683141  0.39350368  0.33020199     0.14700
C1578       C  0.25529815  0.45088633  0.36957206    -0.24300
H1579       H  0.37773079  0.34772143  0.41363720     0.04900
H1580       H  0.37728924  0.33958302  0.36718847     0.08100
H1581       H  0.34799916  0.31572664  0.39602513     0.08100
H1582       H  0.26719160  0.47646865  0.36225807     0.08100
H1583       H  0.23951281  0.45398100  0.39380271     0.08100
H1584       H  0.23718044  0.44337851  0.34797192     0.04900
C1585       C  0.14709334  0.32433818  0.37504096    -0.20900
C1586       C  0.11754685  0.30225428  0.37578765    -0.07500
C1587       C  0.12062688  0.26689925  0.36433737     0.13400
C1588       C  0.15229249  0.25565626  0.34979682    -0.21000
C1589       C  0.18094280  0.27842910  0.34728414    -0.07500
C1590       C  0.17885144  0.31280766  0.36082127     0.13400
C1591       C  0.20949568  0.33777668  0.35870943    -0.24300
H1592       H  0.14498105  0.35116660  0.38440666     0.14700
H1593       H  0.15450335  0.22919542  0.33940200     0.14700
C1594       C  0.09123045  0.24056753  0.36780542    -0.24300
H1595       H  0.20305674  0.36401659  0.36974219     0.04900
H1596       H  0.21740486  0.34143366  0.33093699     0.08100
H1597       H  0.23197809  0.32694195  0.37375845     0.08100
H1598       H  0.06924488  0.24764128  0.35009683     0.08100
H1599       H  0.08204079  0.23965580  0.39541622     0.08100
H1600       H  0.09977512  0.21362126  0.36050216     0.04900
C1601       C  0.98673666  0.26836347  0.37041377    -0.20900
C1602       C  0.98948760  0.30505915  0.37396033    -0.07500
C1603       C  0.96126021  0.32678488  0.36361853     0.13400
C1604       C  0.93123918  0.31119942  0.34922967    -0.21000
C1605       C  0.92925865  0.27473669  0.34444699    -0.07500
C1606       C  0.95687346  0.25293381  0.35561068     0.13400
C1607       C  0.95482296  0.21357621  0.35157782    -0.24300
H1608       H  0.00824982  0.25174641  0.37883815     0.14700
H1609       H  0.90993877  0.32763926  0.33992411     0.14700
C1610       C  0.96347379  0.36631364  0.36543141    -0.24300
H1611       H  0.97868213  0.20033100  0.36184436     0.04900
H1612       H  0.95197606  0.20672341  0.32344116     0.08100
H1613       H  0.93183405  0.20339128  0.36622912     0.08100
H1614       H  0.98646076  0.37569000  0.35025180     0.08100
H1615       H  0.96596285  0.37484008  0.39306825     0.08100
H1616       H  0.93967317  0.37904403  0.35438399     0.04900
C1617       C  0.11334121  0.11905206  0.22961765    -0.20900
C1618       C  0.11748708  0.08474198  0.24329347    -0.07500
C1619       C  0.15053238  0.07577111  0.25767730     0.13400
C1620       C  0.17781571  0.10103452  0.25823051    -0.21000
C1621       C  0.17345067  0.13562829  0.24511246    -0.07500
C1622       C  0.14034786  0.14441580  0.23040193     0.13400
C1623       C  0.13285926  0.18022834  0.21497006    -0.24300
H1624       H  0.08831842  0.12641967  0.21830327     0.14700
H1625       H  0.20277383  0.09365233  0.26965706     0.14700
C1626       C  0.15709340  0.04010845  0.27358534    -0.24300
H1627       H  0.10612796  0.18180090  0.20347237     0.04900
H1628       H  0.15181529  0.18611799  0.19369545     0.08100
H1629       H  0.13450930  0.20062373  0.23572415     0.08100
H1630       H  0.15431577  0.01956860  0.25314055     0.08100
H1631       H  0.13814068  0.03516983  0.29509561     0.08100
H1632       H  0.18392624  0.03794903  0.28473166     0.04900
C1633       C  0.95918567  0.13108993  0.27267197    -0.20900
C1634       C  0.93336704  0.12737871  0.24675021    -0.07500
C1635       C  0.93532714  0.09838141  0.22343175     0.13400
C1636       C  0.96383802  0.07479110  0.22575974    -0.21000
C1637       C  0.99027591  0.07926511  0.25106357    -0.07500
C1638       C  0.98706656  0.10711893  0.27562158     0.13400
C1639       C  0.01223339  0.11197991  0.30583220    -0.24300
H1640       H  0.95716769  0.15243081  0.29135896     0.14700
H1641       H  0.96629890  0.05372853  0.20678270     0.14700
C1642       C  0.90832922  0.09326698  0.19493814    -0.24300
H1643       H  0.99736908  0.11262028  0.33082147     0.04900
H1644       H  0.02650867  0.13724487  0.30272493     0.08100
H1645       H  0.03155039  0.09035542  0.30822427     0.08100
H1646       H  0.90705053  0.11715247  0.17818341     0.08100
H1647       H  0.88220977  0.08829068  0.20665864     0.08100
H1648       H  0.91474932  0.07049677  0.17789886     0.04900
C1649       C  0.97360618  0.65273397  0.36186528    -0.20900
C1650       C  0.99121000  0.67557045  0.38458295    -0.07500
C1651       C  0.97714472  0.70905629  0.39206923     0.13400
C1652       C  0.94637198  0.71976422  0.37492100    -0.21000
C1653       C  0.92999638  0.69759570  0.35054417    -0.07500
C1654       C  0.94304899  0.66332701  0.34466249     0.13400
C1655       C  0.92563849  0.63745365  0.32012498    -0.24300
H1656       H  0.98441914  0.62689243  0.35660256     0.14700
H1657       H  0.93590057  0.74587005  0.37943258     0.14700
C1658       C  0.99466379  0.73333441  0.41793254    -0.24300
H1659       H  0.91937526  0.61291461  0.33465137     0.04900
H1660       H  0.90079141  0.64737410  0.30872243     0.08100
H1661       H  0.94371422  0.63100549  0.29827870     0.08100
H1662       H  0.02138448  0.74007168  0.40876116     0.08100
H1663       H  0.99647218  0.72022608  0.44393058     0.08100
H1664       H  0.97982750  0.75823386  0.42118019     0.04900
C1665       C  0.15609376  0.72969482  0.35817979    -0.20900
C1666       C  0.18256660  0.70534673  0.35081478    -0.07500
C1667       C  0.17816797  0.66972468  0.35984180     0.13400
C1668       C  0.14686045  0.65900337  0.37537619    -0.21000
C1669       C  0.11941540  0.68288971  0.38116084    -0.07500
C1670       C  0.12428285  0.71891492  0.37310081     0.13400
C1671       C  0.09659119  0.74613102  0.38053209    -0.24300
H1672       H  0.16009555  0.75705880  0.35160941     0.14700
H1673       H  0.14328384  0.63142197  0.38170321     0.14700
C1674       C  0.20587648  0.64275383  0.35164697    -0.24300
H1675       H  0.10590878  0.77313800  0.37439825     0.04900
H1676       H  0.08941852  0.74531315  0.40873695     0.08100
H1677       H  0.07306437  0.74115649  0.36412553     0.08100
H1678       H  0.23070560  0.65024877  0.36472954     0.08100
H1679       H  0.21015219  0.64150020  0.32287335     0.08100
H1680       H  0.19840755  0.61606851  0.36090726     0.04900
C1681       C  0.96721657  0.89534392  0.26984684    -0.20900
C1682       C  0.99348892  0.89037928  0.24461895    -0.07500
C1683       C  0.98973799  0.86241399  0.22026929     0.13400
C1684       C  0.96093851  0.83934782  0.22276966    -0.21000
C1685       C  0.93501970  0.84371801  0.24845101    -0.07500
C1686       C  0.93800535  0.87255992  0.27202405     0.13400
C1687       C  0.91130143  0.87875134  0.30047871    -0.24300
H1688       H  0.97011378  0.91652998  0.28864298     0.14700
H1689       H  0.95838393  0.81794412  0.20415435     0.14700
C1690       C  0.01546655  0.85740760  0.19072842    -0.24300
H1691       H  0.91892368  0.90093141  0.31784868     0.04900
H1692       H  0.90867342  0.85482180  0.31701387     0.08100
H1693       H  0.88554649  0.88545121  0.28869204     0.08100
H1694       H  0.04169349  0.85048190  0.20120691     0.08100
H1695       H  0.01731324  0.88200946  0.17509398     0.08100
H1696       H  0.00725532  0.83591232  0.17276946     0.04900
C1697       C  0.11905367  0.85791199  0.26955317    -0.20900
C1698       C  0.12123940  0.89112229  0.25318602    -0.07500
C1699       C  0.15339372  0.90072585  0.23728242     0.13400
C1700       C  0.18158537  0.87659858  0.23712455    -0.21000
C1701       C  0.17853468  0.84269092  0.25183817    -0.07500
C1702       C  0.14686643  0.83368331  0.26887719     0.13400
C1703       C  0.14232653  0.79885931  0.28721767    -0.24300
H1704       H  0.09491659  0.85039877  0.28248968     0.14700
H1705       H  0.20593772  0.88395847  0.22450394     0.14700
C1706       C  0.15790340  0.93566075  0.21922942    -0.24300
H1707       H  0.11741780  0.79753665  0.30217186     0.04900
H1708       H  0.16424451  0.79498937  0.30592785     0.08100
H1709       H  0.14200138  0.77715244  0.26778570     0.08100
H1710       H  0.15493697  0.95720512  0.23857232     0.08100
H1711       H  0.13805252  0.93855642  0.19807480     0.08100
H1712       H  0.18423923  0.93828997  0.20717894     0.04900
C1713       C  0.09487779  0.58837677  0.51664784    -0.20900
C1714       C  0.06308400  0.58747885  0.53493644    -0.07500
C1715       C  0.03186850  0.58279027  0.51561118     0.13400
C1716       C  0.03180209  0.59162845  0.48000948    -0.21000
C1717       C  0.06279980  0.60293684  0.46360277    -0.07500
C1718       C  0.09528412  0.59626944  0.48081154     0.13400
C1719       C  0.13051226  0.60042950  0.46334272    -0.24300
H1720       H  0.11944259  0.58827720  0.53099071     0.14700
H1721       H  0.00700083  0.59258919  0.46612344     0.14700
C1722       C  0.99824976  0.57066935  0.53230057    -0.24300
H1723       H  0.15174218  0.58832770  0.47928700     0.04900
H1724       H  0.13721658  0.62867253  0.46031656     0.08100
H1725       H  0.13038657  0.58705979  0.43745813     0.08100
H1726       H  0.97838089  0.59194668  0.53104789     0.08100
H1727       H  0.00218712  0.56261492  0.56003568     0.08100
H1728       H  0.98814614  0.54735795  0.51794212     0.04900
C1729       C  0.15056278  0.66167712  0.61078495    -0.20900
C1730       C  0.12620534  0.64363762  0.63159499    -0.07500
C1731       C  0.13156846  0.64073695  0.66800573     0.13400
C1732       C  0.16005658  0.65799330  0.68318143    -0.21000
C1733       C  0.18338854  0.67823626  0.66292877    -0.07500
C1734       C  0.17934596  0.67898358  0.62595357     0.13400
C1735       C  0.20419402  0.69873305  0.60238223    -0.24300
H1736       H  0.14615433  0.66351128  0.58272290     0.14700
H1737       H  0.16385977  0.65585001  0.71130153     0.14700
C1738       C  0.10749626  0.61920933  0.69090308    -0.24300
H1739       H  0.19553157  0.69812942  0.57454360     0.04900
H1740       H  0.23061361  0.68660251  0.60360548     0.08100
H1741       H  0.20577255  0.72663818  0.61061348     0.08100
H1742       H  0.10626868  0.59179474  0.68094877     0.08100
H1743       H  0.08080109  0.63069209  0.69095592     0.08100
H1744       H  0.11680044  0.61828170  0.71853429     0.04900
C1745       C  0.99464563  0.64988655  0.66065321    -0.20900
C1746       C  0.99990004  0.65441859  0.62479483    -0.07500
C1747       C  0.97563196  0.67413998  0.60480182     0.13400
C1748       C  0.94640946  0.68903256  0.62166168    -0.21000
C1749       C  0.94171820  0.68547168  0.65806698    -0.07500
C1750       C  0.96609668  0.66488568  0.67764672     0.13400
C1751       C  0.96201412  0.65695635  0.71625206    -0.24300
H1752       H  0.01330788  0.63437438  0.67560610     0.14700
H1753       H  0.92768088  0.70410609  0.60650789     0.14700
C1754       C  0.98133527  0.68090904  0.56629299    -0.24300
H1755       H  0.98197819  0.63798957  0.72591933     0.04900
H1756       H  0.93597644  0.64491180  0.72072243     0.08100
H1757       H  0.96525544  0.68119219  0.73211029     0.08100
H1758       H  0.98090013  0.65572753  0.55163914     0.08100
H1759       H  0.00703347  0.69403910  0.56235646     0.08100
H1760       H  0.96065254  0.69818984  0.55512078     0.04900
C1761       C  0.12216587  0.85806982  0.78747181    -0.20900
C1762       C  0.12221385  0.88872341  0.76661210    -0.07500
C1763       C  0.15095646  0.89453558  0.74393771     0.13400
C1764       C  0.17786552  0.86915661  0.74189114    -0.21000
C1765       C  0.17710312  0.83788588  0.76186872    -0.07500
C1766       C  0.14909752  0.83284583  0.78566019     0.13400
C1767       C  0.14769644  0.80155403  0.81003650    -0.24300
H1768       H  0.10047600  0.85356518  0.80522665     0.14700
H1769       H  0.19946740  0.87355258  0.72399805     0.14700
C1770       C  0.15292097  0.92665944  0.72086340    -0.24300
H1771       H  0.12517954  0.80314183  0.82837326     0.04900
H1772       H  0.17203348  0.80031502  0.82604383     0.08100
H1773       H  0.14464658  0.77692476  0.79474342     0.08100
H1774       H  0.15399999  0.95068700  0.73734624     0.08100
H1775       H  0.12962790  0.92778282  0.70338806     0.08100
H1776       H  0.17667615  0.92645405  0.70407802     0.04900
C1777       C  0.97582300  0.88946631  0.73422738    -0.20900
C1778       C  0.99501346  0.89022788  0.76564918    -0.07500
C1779       C  0.98633864  0.86607435  0.79263779     0.13400
C1780       C  0.95932620  0.84136095  0.78721359    -0.21000
C1781       C  0.94062177  0.84011407  0.75549066    -0.07500
C1782       C  0.94885495  0.86469470  0.72874283     0.13400
C1783       C  0.93045632  0.86377516  0.69369832    -0.24300
H1784       H  0.98305598  0.90730645  0.71324418     0.14700
H1785       H  0.95251115  0.82309995  0.80799027     0.14700
C1786       C  0.00514460  0.86669593  0.82745904    -0.24300
H1787       H  0.94142428  0.88348763  0.67518968     0.04900
H1788       H  0.90220879  0.86969088  0.69700473     0.08100
H1789       H  0.93345699  0.83734403  0.68168725     0.08100
H1790       H  0.00248985  0.89314032  0.83950537     0.08100
H1791       H  0.03331107  0.86057897  0.82386287     0.08100
H1792       H  0.99416436  0.84703629  0.84602985     0.04900
C1793       C  0.08743660  0.37571479  0.47957167    -0.20900
C1794       C  0.05472774  0.37188363  0.46293329    -0.07500
C1795       C  0.02416076  0.37884591  0.48279418     0.13400
C1796       C  0.02682760  0.37970016  0.51941764    -0.21000
C1797       C  0.05895292  0.37327477  0.53628629    -0.07500
C1798       C  0.09011237  0.37613270  0.51619912     0.13400
C1799       C  0.12628769  0.37725417  0.53225625    -0.24300
H1800       H  0.11128461  0.37422023  0.46426517     0.14700
H1801       H  0.00307699  0.38152789  0.53477651     0.14700
C1802       C  0.98848549  0.38359862  0.46645112    -0.24300
H1803       H  0.14642969  0.38463080  0.51257415     0.04900
H1804       H  0.13378386  0.35104469  0.54264557     0.08100
H1805       H  0.12714210  0.39733334  0.55335717     0.08100
H1806       H  0.97792527  0.35807593  0.45715998     0.08100
H1807       H  0.99018235  0.40277318  0.44453515     0.08100
H1808       H  0.96935269  0.39414044  0.48567257     0.04900
C1809       C  0.17953320  0.31597332  0.65186251    -0.20900
C1810       C  0.18326115  0.27930195  0.65219663    -0.07500
C1811       C  0.15601392  0.25762608  0.63992788     0.13400
C1812       C  0.12489868  0.27322469  0.62818959    -0.21000
C1813       C  0.12072597  0.30992169  0.62858323    -0.07500
C1814       C  0.14841755  0.33165508  0.64019449     0.13400
C1815       C  0.14453716  0.37106090  0.64220515    -0.24300
H1816       H  0.20042372  0.33224929  0.66236702     0.14700
H1817       H  0.10370962  0.25674766  0.61869362     0.14700
C1818       C  0.15979128  0.21815934  0.63966794    -0.24300
H1819       H  0.16822113  0.38372768  0.65356871     0.04900
H1820       H  0.12180979  0.37782120  0.65903282     0.08100
H1821       H  0.14046870  0.38215035  0.61560166     0.08100
H1822       H  0.16417192  0.20829439  0.66675988     0.08100
H1823       H  0.18247236  0.21066016  0.62307980     0.08100
H1824       H  0.13602364  0.20507924  0.62899560     0.04900
C1825       C  0.99479583  0.27197953  0.64003557    -0.20900
C1826       C  0.99274754  0.30505712  0.62358583    -0.07500
C1827       C  0.95939367  0.32119584  0.61961297     0.13400
C1828       C  0.92985026  0.30508140  0.63462229    -0.21000
C1829       C  0.93267801  0.27317022  0.65283757    -0.07500
C1830       C  0.96522178  0.25561995  0.65412174     0.13400
C1831       C  0.96963779  0.21944766  0.66981415    -0.24300
H1832       H  0.01976347  0.25850419  0.64196016     0.14700
H1833       H  0.90467576  0.31827188  0.63357586     0.14700
C1834       C  0.95452458  0.35579684  0.60089482    -0.24300
H1835       H  0.98745884  0.22082227  0.69284467     0.04900
H1836       H  0.98122233  0.20155313  0.64996794     0.08100
H1837       H  0.94449246  0.20758126  0.67814602     0.08100
H1838       H  0.96117473  0.35270735  0.57276223     0.08100
H1839       H  0.97134043  0.37628411  0.61306968     0.08100
H1840       H  0.92695400  0.36508084  0.60212622     0.04900
C1841       C  0.14384970  0.08564362  0.78284810    -0.20900
C1842       C  0.12398791  0.07901571  0.75243547    -0.07500
C1843       C  0.13170607  0.09826490  0.72152725     0.13400
C1844       C  0.15778808  0.12442769  0.72214362    -0.21000
C1845       C  0.17775341  0.13095809  0.75234843    -0.07500
C1846       C  0.17058377  0.11142499  0.78314716     0.13400
C1847       C  0.18982079  0.11926534  0.81682631    -0.24300
H1848       H  0.13732044  0.07183669  0.80685803     0.14700
H1849       H  0.16261974  0.13970643  0.69868694     0.14700
C1850       C  0.11322618  0.09144746  0.68717516    -0.24300
H1851       H  0.18183671  0.10119933  0.83829383     0.04900
H1852       H  0.18415615  0.14666578  0.82513273     0.08100
H1853       H  0.21843451  0.11661654  0.81301938     0.08100
H1854       H  0.09936059  0.11559277  0.67848193     0.08100
H1855       H  0.09403281  0.06959963  0.68871388     0.08100
H1856       H  0.13280985  0.08423698  0.66693997     0.04900
C1857       C  0.96551571  0.13442831  0.73103128    -0.20900
C1858       C  0.93732217  0.12778130  0.75352287    -0.07500
C1859       C  0.93801300  0.09647016  0.77398468     0.13400
C1860       C  0.96749248  0.07383973  0.77255350    -0.21000
C1861       C  0.99626501  0.08117261  0.75073860    -0.07500
C1862       C  0.99440387  0.11146979  0.72877777     0.13400
C1863       C  0.02212572  0.11943081  0.70176849    -0.24300
H1864       H  0.96461609  0.15756223  0.71448912     0.14700
H1865       H  0.96844978  0.05077991  0.78927595     0.14700
C1866       C  0.90825928  0.08729017  0.79826653    -0.24300
H1867       H  0.01421999  0.14138078  0.68418083     0.04900
H1868       H  0.02666518  0.09591398  0.68512765     0.08100
H1869       H  0.04681953  0.12752058  0.71479650     0.08100
H1870       H  0.88398931  0.08252186  0.78290597     0.08100
H1871       H  0.90380783  0.10911610  0.81707066     0.08100
H1872       H  0.91383061  0.06304889  0.81359661     0.04900
C1873       C  0.38929485  0.10152404  0.32429332    -0.20900
C1874       C  0.39884883  0.11395664  0.29104613    -0.07500
C1875       C  0.42523730  0.09702111  0.27163837     0.13400
C1876       C  0.44036253  0.06646931  0.28548286    -0.21000
C1877       C  0.43003866  0.05359820  0.31836630    -0.07500
C1878       C  0.40493025  0.07154911  0.33841778     0.13400
C1879       C  0.39421073  0.05871064  0.37422989    -0.24300
H1880       H  0.36924118  0.11521585  0.33904845     0.14700
H1881       H  0.46010121  0.05243854  0.27062800     0.14700
C1882       C  0.43679135  0.11061921  0.23635216    -0.24300
H1883       H  0.37387743  0.07585782  0.38609458     0.04900
H1884       H  0.41734189  0.05850271  0.39195853     0.08100
H1885       H  0.38340022  0.03166268  0.37223928     0.08100
H1886       H  0.44786866  0.13746950  0.23923014     0.08100
H1887       H  0.41418953  0.11168577  0.21810484     0.08100
H1888       H  0.45718867  0.09355919  0.22448936     0.04900
C1889       C  0.41551525  0.92904635  0.28049205    -0.20900
C1890       C  0.43818246  0.92618977  0.30960332    -0.07500
C1891       C  0.44634729  0.89216291  0.32261483     0.13400
C1892       C  0.42992322  0.86270726  0.30761754    -0.21000
C1893       C  0.40529185  0.86610771  0.28050453    -0.07500
C1894       C  0.39874031  0.89974701  0.26602542     0.13400
C1895       C  0.37400178  0.90538972  0.23547659    -0.24300
H1896       H  0.40983714  0.95466598  0.26938185     0.14700
H1897       H  0.43476701  0.83699276  0.31858331     0.14700
C1898       C  0.47105480  0.88625256  0.35297191    -0.24300
H1899       H  0.37489057  0.93290842  0.22568672     0.04900
H1900       H  0.34654895  0.90017820  0.24337972     0.08100
H1901       H  0.38124278  0.88797056  0.21339528     0.08100
H1902       H  0.46138124  0.90024511  0.37658805     0.08100
H1903       H  0.49766636  0.89567532  0.34597008     0.08100
H1904       H  0.47335768  0.85793609  0.35985819     0.04900
C1905       C  0.32362062  0.05031573  0.12953414    -0.20900
C1906       C  0.30655734  0.05234104  0.09672307    -0.07500
C1907       C  0.28987973  0.08436868  0.08754538     0.13400
C1908       C  0.28946873  0.11249408  0.11177830    -0.21000
C1909       C  0.30519340  0.10968490  0.14516365    -0.07500
C1910       C  0.32341302  0.07838403  0.15356438     0.13400
C1911       C  0.34398219  0.07481596  0.18719446    -0.24300
H1912       H  0.33718280  0.02629130  0.13666154     0.14700
H1913       H  0.27614245  0.13670670  0.10482437     0.14700
C1914       C  0.27157725  0.08888621  0.05283253    -0.24300
H1915       H  0.35900522  0.04981695  0.18822097     0.04900
H1916       H  0.32611792  0.07515422  0.21009648     0.08100
H1917       H  0.36290847  0.09685850  0.18921471     0.08100
H1918       H  0.25079199  0.06865647  0.04984883     0.08100
H1919       H  0.29090135  0.08633704  0.03133609     0.08100
H1920       H  0.25912547  0.11518525  0.05040822     0.04900
C1921       C  0.31789958  0.89472445  0.08789642    -0.20900
C1922       C  0.29779570  0.92411405  0.09743058    -0.07500
C1923       C  0.27809244  0.92249592  0.12899245     0.13400
C1924       C  0.28033163  0.89255466  0.15062424    -0.21000
C1925       C  0.30165302  0.86373687  0.14201847    -0.07500
C1926       C  0.32028867  0.86472168  0.10973554     0.13400
C1927       C  0.34404829  0.83508838  0.09866596    -0.24300
H1928       H  0.33294762  0.89578691  0.06383703     0.14700
H1929       H  0.26530678  0.89176664  0.17471868     0.14700
C1930       C  0.25390758  0.95189343  0.13997417    -0.24300
H1931       H  0.35824191  0.84136425  0.07403482     0.04900
H1932       H  0.32845538  0.81092923  0.09378318     0.08100
H1933       H  0.36391830  0.83000288  0.11939094     0.08100
H1934       H  0.23563180  0.95838722  0.11819623     0.08100
H1935       H  0.26920837  0.97554588  0.14743543     0.08100
H1936       H  0.23789676  0.94448151  0.16313302     0.04900
C1937       C  0.69288316  0.04758764  0.71137930    -0.20900
C1938       C  0.68255822  0.04940990  0.67597220    -0.07500
C1939       C  0.68593440  0.08166453  0.65766462     0.13400
C1940       C  0.69995172  0.11090675  0.67511226    -0.21000
C1941       C  0.71203339  0.10823591  0.70969872    -0.07500
C1942       C  0.70843477  0.07633961  0.72817618     0.13400
C1943       C  0.72193995  0.07225760  0.76513896    -0.24300
H1944       H  0.69008005  0.02304426  0.72562606     0.14700
H1945       H  0.70357395  0.13544452  0.66100030     0.14700
C1946       C  0.67698084  0.08516383  0.61938926    -0.24300
H1947       H  0.71552529  0.04599638  0.77622331     0.04900
H1948       H  0.71015891  0.09261769  0.78231044     0.08100
H1949       H  0.75085282  0.07509647  0.76532397     0.08100
H1950       H  0.64836061  0.08285181  0.61611377     0.08100
H1951       H  0.69062425  0.06455716  0.60397718     0.08100
H1952       H  0.68480722  0.11120138  0.60866785     0.04900
C1953       C  0.70314912  0.85911192  0.67096834    -0.20900
C1954       C  0.71705085  0.86118838  0.70495330    -0.07500
C1955       C  0.71454087  0.89288164  0.72388982     0.13400
C1956       C  0.70023777  0.92255511  0.70742546    -0.21000
C1957       C  0.68780994  0.92127264  0.67261327    -0.07500
C1958       C  0.68837357  0.88868340  0.65449584     0.13400
C1959       C  0.67486659  0.88485629  0.61750071    -0.24300
H1960       H  0.70520911  0.83452335  0.65670962     0.14700
H1961       H  0.69868053  0.94694983  0.72203048     0.14700
C1962       C  0.72619718  0.89522540  0.76167732    -0.24300
H1963       H  0.67956799  0.85802650  0.60697777     0.04900
H1964       H  0.68824989  0.90394213  0.59999548     0.08100
H1965       H  0.64617420  0.88932558  0.61686623     0.08100
H1966       H  0.75471856  0.89008955  0.76392328     0.08100
H1967       H  0.71167386  0.87556559  0.77759917     0.08100
H1968       H  0.72104335  0.92166545  0.77292292     0.04900
C1969       C  0.79337215  0.07302573  0.84542410    -0.20900
C1970       C  0.81051576  0.10382006  0.85599238    -0.07500
C1971       C  0.82509942  0.10506421  0.89039679     0.13400
C1972       C  0.82316017  0.07516433  0.91241325    -0.21000
C1973       C  0.80656599  0.04409313  0.90142842    -0.07500
C1974       C  0.79057132  0.04357527  0.86758192     0.13400
C1975       C  0.76915754  0.01271411  0.85467052    -0.24300
H1976       H  0.78138303  0.07221031  0.81968374     0.14700
H1977       H  0.83534785  0.07582936  0.93811936     0.14700
C1978       C  0.84366683  0.13735240  0.90394032    -0.24300
H1979       H  0.75523655  0.01887349  0.82977495     0.04900
H1980       H  0.74903435  0.00564583  0.87446248     0.08100
H1981       H  0.78624392  0.98979182  0.84925177     0.08100
H1982       H  0.82485482  0.15941917  0.90660581     0.08100
H1983       H  0.86505795  0.14491126  0.88573108     0.08100
H1984       H  0.85543657  0.13279611  0.93024163     0.04900
C1985       C  0.83792510  0.91750347  0.87520434    -0.20900
C1986       C  0.81537332  0.91690229  0.90439701    -0.07500
C1987       C  0.79206038  0.88824677  0.90807084     0.13400
C1988       C  0.79161398  0.86147350  0.88233280    -0.21000
C1989       C  0.81346218  0.86271332  0.85245604    -0.07500
C1990       C  0.83722035  0.89117304  0.84926478     0.13400
C1991       C  0.86236944  0.89396229  0.81891781    -0.24300
H1992       H  0.85571398  0.93953742  0.87211853     0.14700
H1993       H  0.77343523  0.83974352  0.88519437     0.14700
C1994       C  0.76656282  0.88658204  0.93812071    -0.24300
H1995       H  0.88027901  0.91683730  0.82172954     0.04900
H1996       H  0.84763909  0.89751993  0.79402667     0.08100
H1997       H  0.87872903  0.86986138  0.81740854     0.08100
H1998       H  0.74948282  0.91022361  0.93782754     0.08100
H1999       H  0.78109916  0.88541708  0.96335978     0.08100
H2000       H  0.74947772  0.86296902  0.93649135     0.04900
C2001       C  0.34488508  0.35524056  0.06461170    -0.20900
C2002       C  0.38161964  0.35704991  0.06282841    -0.07500
C2003       C  0.40199090  0.34838721  0.09260354     0.13400
C2004       C  0.38506016  0.33774778  0.12337899    -0.21000
C2005       C  0.34850892  0.33497493  0.12471637    -0.07500
C2006       C  0.32804681  0.34429490  0.09536397     0.13400
C2007       C  0.28859551  0.34276235  0.09666564    -0.24300
H2008       H  0.32933159  0.36246071  0.04187021     0.14700
H2009       H  0.40047434  0.32953575  0.14589949     0.14700
C2010       C  0.44145098  0.34793552  0.09141948    -0.24300
H2011       H  0.27659596  0.35124134  0.07145442     0.04900
H2012       H  0.27893835  0.36046805  0.11768451     0.08100
H2013       H  0.27974934  0.31550003  0.10221435     0.08100
H2014       H  0.45164005  0.37478672  0.08692813     0.08100
H2015       H  0.45039472  0.33034132  0.07000591     0.08100
H2016       H  0.45296608  0.33826054  0.11642836     0.04900
C2017       C  0.34485295  0.34890395  0.93613903    -0.20900
C2018       C  0.38020711  0.35939470  0.93496410    -0.07500
C2019       C  0.39869305  0.35716451  0.90286335     0.13400
C2020       C  0.38162560  0.34332392  0.87330728    -0.21000
C2021       C  0.34704083  0.33111973  0.87531826    -0.07500
C2022       C  0.32815552  0.33442043  0.90681144     0.13400
C2023       C  0.29053152  0.32253385  0.90956431    -0.24300
H2024       H  0.33033933  0.35131977  0.96042997     0.14700
H2025       H  0.39597816  0.34007388  0.84899246     0.14700
C2026       C  0.43679095  0.36716125  0.89989082    -0.24300
H2027       H  0.27936050  0.32834973  0.93581094     0.04900
H2028       H  0.28864112  0.29372162  0.90532384     0.08100
H2029       H  0.27438534  0.33633283  0.88955392     0.08100
H2030       H  0.45250012  0.35207377  0.91930277     0.08100
H2031       H  0.44005347  0.39577167  0.90453331     0.08100
H2032       H  0.44737175  0.36135522  0.87338765     0.04900
C2033       C  0.20753947  0.21731987  0.09188436    -0.20900
C2034       C  0.19860745  0.23792240  0.12097700    -0.07500
C2035       C  0.16615260  0.25646270  0.12020080     0.13400
C2036       C  0.14456172  0.25464391  0.09009048    -0.21000
C2037       C  0.15434221  0.23510234  0.06047845    -0.07500
C2038       C  0.18614646  0.21555828  0.06190432     0.13400
C2039       C  0.19807122  0.19225588  0.03222255    -0.24300
H2040       H  0.23174385  0.20241104  0.09248796     0.14700
H2041       H  0.12038134  0.26956701  0.08923828     0.14700
C2042       C  0.15436499  0.27930568  0.15025253    -0.24300
H2043       H  0.22075515  0.17561386  0.03990093     0.04900
H2044       H  0.20678175  0.20863222  0.00980246     0.08100
H2045       H  0.17651974  0.17437525  0.02409733     0.08100
H2046       H  0.17475056  0.29921201  0.15625937     0.08100
H2047       H  0.14924069  0.26289028  0.17378266     0.08100
H2048       H  0.12973534  0.29358657  0.14401012     0.04900
C2049       C  0.18041277  0.21160392  0.93237226    -0.20900
C2050       C  0.15285652  0.23620520  0.93278777    -0.07500
C2051       C  0.14932822  0.25958632  0.90414595     0.13400
C2052       C  0.17376667  0.25814657  0.87641573    -0.21000
C2053       C  0.20227150  0.23450581  0.87685442    -0.07500
C2054       C  0.20519091  0.21054648  0.90516258     0.13400
C2055       C  0.23376163  0.18314162  0.90664285    -0.24300
H2056       H  0.18282923  0.19314823  0.95390563     0.14700
H2057       H  0.17108800  0.27628268  0.85461724     0.14700
C2058       C  0.12089394  0.28702130  0.90337569    -0.24300
H2059       H  0.23071530  0.16534204  0.92957692     0.04900
H2060       H  0.25975111  0.19600355  0.90910295     0.08100
H2061       H  0.23303921  0.16674347  0.88254944     0.08100
H2062       H  0.12318142  0.30427150  0.92676358     0.08100
H2063       H  0.09482183  0.27407356  0.90327406     0.08100
H2064       H  0.12264931  0.30389505  0.87962026     0.04900
C2065       C  0.78863456  0.61896971  0.10879311    -0.20900
C2066       C  0.76503676  0.63821373  0.12906930    -0.07500
C2067       C  0.72954869  0.64075849  0.11898972     0.13400
C2068       C  0.71903755  0.62652677  0.08681524    -0.21000
C2069       C  0.74323432  0.60943327  0.06518036    -0.07500
C2070       C  0.77782059  0.60366616  0.07718943     0.13400
C2071       C  0.80288302  0.58046983  0.05750562    -0.24300
H2072       H  0.81566456  0.61661859  0.11732281     0.14700
H2073       H  0.69208558  0.62932470  0.07818252     0.14700
C2074       C  0.70301289  0.65872366  0.14206974    -0.24300
H2075       H  0.82818483  0.57746172  0.07166422     0.04900
H2076       H  0.80851855  0.59199697  0.03157686     0.08100
H2077       H  0.79121823  0.55391524  0.05410244     0.08100
H2078       H  0.71033256  0.68668981  0.14584784     0.08100
H2079       H  0.70215590  0.64545400  0.16800791     0.08100
H2080       H  0.67628548  0.65783156  0.13049362     0.04900
C2081       C  0.72832199  0.60916235  0.90643721    -0.20900
C2082       C  0.75039343  0.60751934  0.93605649    -0.07500
C2083       C  0.78582408  0.61835797  0.93275400     0.13400
C2084       C  0.79735656  0.63257632  0.90091144    -0.21000
C2085       C  0.77468976  0.63598105  0.87230850    -0.07500
C2086       C  0.74010330  0.62326364  0.87455340     0.13400
C2087       C  0.71532910  0.62580270  0.84374852    -0.24300
H2088       H  0.70136612  0.60044228  0.90850873     0.14700
H2089       H  0.82410766  0.64168739  0.89841753     0.14700
C2090       C  0.81202282  0.61450062  0.96205527    -0.24300
H2091       H  0.68879577  0.61582729  0.85035367     0.04900
H2092       H  0.72555828  0.60996902  0.82156823     0.08100
H2093       H  0.71278175  0.65358885  0.83519260     0.08100
H2094       H  0.81275937  0.58664253  0.97077633     0.08100
H2095       H  0.80502598  0.63214792  0.98408256     0.08100
H2096       H  0.83890766  0.62182360  0.95362532     0.04900
C2097       C  0.92710374  0.71441949  0.06266279    -0.20900
C2098       C  0.96034428  0.73053445  0.06528431    -0.07500
C2099       C  0.96936414  0.74707754  0.09733967     0.13400
C2100       C  0.94493910  0.74756409  0.12517904    -0.21000
C2101       C  0.91125803  0.73258416  0.12194231    -0.07500
C2102       C  0.90260091  0.71522825  0.09020619     0.13400
C2103       C  0.86797299  0.69665112  0.08521331    -0.24300
H2104       H  0.91993321  0.70120202  0.03850328     0.14700
H2105       H  0.95193015  0.76062914  0.14947247     0.14700
C2106       C  0.00395464  0.76556208  0.10205830    -0.24300
H2107       H  0.86667951  0.68256536  0.05971528     0.04900
H2108       H  0.84620094  0.71596596  0.08548090     0.08100
H2109       H  0.86409597  0.67694262  0.10638531     0.08100
H2110       H  0.00690012  0.78637548  0.08180833     0.08100
H2111       H  0.02571651  0.74636642  0.09982305     0.08100
H2112       H  0.00605248  0.77824588  0.12822162     0.04900
C2113       C  0.92594021  0.72274301  0.94069050    -0.20900
C2114       C  0.96169451  0.73150215  0.93726415    -0.07500
C2115       C  0.97414509  0.74049564  0.90334837     0.13400
C2116       C  0.95047072  0.74117147  0.87468200    -0.21000
C2117       C  0.91444733  0.73351651  0.87868821    -0.07500
C2118       C  0.90234156  0.72396665  0.91248100     0.13400
C2119       C  0.86467093  0.71424322  0.91948626    -0.24300
H2120       H  0.91582746  0.71499353  0.96607097     0.14700
H2121       H  0.96018865  0.74830427  0.84894251     0.14700
C2122       C  0.01192778  0.75000666  0.89694661    -0.24300
H2123       H  0.86057504  0.70496139  0.94682058     0.04900
H2124       H  0.85664615  0.69269770  0.90164966     0.08100
H2125       H  0.84753522  0.73750088  0.91556403     0.08100
H2126       H  0.02903841  0.72731996  0.90350838     0.08100
H2127       H  0.01931358  0.77308657  0.91318950     0.08100
H2128       H  0.01673612  0.75696402  0.86904990     0.04900
C2129       C  0.53869702  0.01134808  0.60747022    -0.20900
C2130       C  0.52231241  0.97943862  0.61633231    -0.07500
C2131       C  0.54181053  0.94779157  0.61231247     0.13400
C2132       C  0.57818028  0.94997260  0.60822783    -0.21000
C2133       C  0.59527346  0.98264039  0.60804658    -0.07500
C2134       C  0.57486244  0.01301273  0.60196695     0.13400
C2135       C  0.59032607  0.04730241  0.59009345    -0.24300
H2136       H  0.52366771  0.03549768  0.60646632     0.14700
H2137       H  0.59343198  0.92598177  0.60914825     0.14700
C2138       C  0.52567401  0.91160949  0.61351545    -0.24300
H2139       H  0.57581384  0.05695532  0.56669628     0.04900
H2140       H  0.61799380  0.04408690  0.58193808     0.08100
H2141       H  0.58808005  0.06711762  0.61134357     0.08100
H2142       H  0.50454597  0.91001107  0.59358715     0.08100
H2143       H  0.51568340  0.90548856  0.64012006     0.08100
H2144       H  0.54501620  0.89077919  0.60706236     0.04900
C2145       C  0.42190817  0.04729729  0.71770661    -0.20900
C2146       C  0.43555683  0.04777642  0.68343117    -0.07500
C2147       C  0.43563635  0.07981779  0.66436430     0.13400
C2148       C  0.42028411  0.10979055  0.67933280    -0.21000
C2149       C  0.40491157  0.10847684  0.71264723    -0.07500
C2150       C  0.40674471  0.07730279  0.73259140     0.13400
C2151       C  0.39310998  0.07581755  0.76967338    -0.24300
H2152       H  0.42268231  0.02313958  0.73283710     0.14700
H2153       H  0.41870319  0.13396692  0.66426435     0.14700
C2154       C  0.45009494  0.08242104  0.62769353    -0.24300
H2155       H  0.39787820  0.04974908  0.78197749     0.04900
H2156       H  0.36449854  0.08071299  0.77003954     0.08100
H2157       H  0.40652576  0.09607244  0.78581675     0.08100
H2158       H  0.43694178  0.06296268  0.61039070     0.08100
H2159       H  0.47873957  0.07756945  0.62812417     0.08100
H2160       H  0.44594053  0.10896323  0.61618443     0.04900
C2161       C  0.40582198  0.86027714  0.67393326    -0.20900
C2162       C  0.39988044  0.85885623  0.71011442    -0.07500
C2163       C  0.40829202  0.88768132  0.73162352     0.13400
C2164       C  0.42302907  0.91762217  0.71632612    -0.21000
C2165       C  0.42839601  0.91958083  0.67994055    -0.07500
C2166       C  0.41954172  0.89064695  0.65837207     0.13400
C2167       C  0.42224460  0.89236522  0.61898514    -0.24300
H2168       H  0.39801671  0.83820519  0.65765505     0.14700
H2169       H  0.42995695  0.93981885  0.73278837     0.14700
C2170       C  0.40121324  0.88692782  0.77053027    -0.24300
H2171       H  0.41151144  0.86833390  0.60632637     0.04900
H2172       H  0.44996845  0.89468322  0.61113300     0.08100
H2173       H  0.40730127  0.91533858  0.60894700     0.08100
H2174       H  0.41510776  0.86431343  0.78268503     0.08100
H2175       H  0.37265188  0.88422827  0.77533228     0.08100
H2176       H  0.41028378  0.91139001  0.78362251     0.04900
C2177       C  0.28940972  0.04436437  0.86865682    -0.20900
C2178       C  0.29860817  0.04951801  0.90421533    -0.07500
C2179       C  0.30854332  0.08381705  0.91468307     0.13400
C2180       C  0.30998286  0.11107019  0.88941404    -0.21000
C2181       C  0.30195807  0.10542341  0.85353202    -0.07500
C2182       C  0.29133526  0.07112955  0.84334159     0.13400
C2183       C  0.28219763  0.06153612  0.80593988    -0.24300
H2184       H  0.28091034  0.01860823  0.86001742     0.14700
H2185       H  0.31785232  0.13707139  0.89796479     0.14700
C2186       C  0.31792403  0.09210557  0.95214123    -0.24300
H2187       H  0.27400011  0.03361096  0.80337377     0.04900
H2188       H  0.30536923  0.06518119  0.78883451     0.08100
H2189       H  0.26015929  0.07779768  0.79624529     0.08100
H2190       H  0.34038363  0.07563917  0.96073058     0.08100
H2191       H  0.29491561  0.08703724  0.96911876     0.08100
H2192       H  0.32549143  0.12011757  0.95554935     0.04900
C2193       C  0.28185512  0.92463798  0.87329109    -0.20900
C2194       C  0.29709410  0.92201925  0.90697467    -0.07500
C2195       C  0.31319264  0.88989056  0.91642996     0.13400
C2196       C  0.31427733  0.86202692  0.89189930    -0.21000
C2197       C  0.30045959  0.86528252  0.85755249    -0.07500
C2198       C  0.28352877  0.89728862  0.84854005     0.13400
C2199       C  0.26656489  0.90322497  0.81318264    -0.24300
H2200       H  0.26884933  0.94885885  0.86581232     0.14700
H2201       H  0.32662239  0.83758969  0.89962579     0.14700
C2202       C  0.33037903  0.88506694  0.95171257    -0.24300
H2203       H  0.25311068  0.92909013  0.81164115     0.04900
H2204       H  0.24658459  0.88257725  0.80813921     0.08100
H2205       H  0.28674224  0.90297202  0.79226278     0.08100
H2206       H  0.31054050  0.88759971  0.97280233     0.08100
H2207       H  0.35119142  0.90516342  0.95539019     0.08100
H2208       H  0.34269558  0.85872102  0.95428838     0.04900
C2209       C  0.57808349  0.02348882  0.39357103    -0.20900
C2210       C  0.59525509  0.99084830  0.39359389    -0.07500
C2211       C  0.57488145  0.96048455  0.39952595     0.13400
C2212       C  0.53899331  0.96173674  0.39223529    -0.21000
C2213       C  0.52292384  0.99351512  0.38242291    -0.07500
C2214       C  0.54184347  0.02538952  0.38784073     0.13400
C2215       C  0.52544129  0.06144346  0.38530710    -0.24300
H2216       H  0.59335574  0.04753799  0.39301019     0.14700
H2217       H  0.52407521  0.93747725  0.39248405     0.14700
C2218       C  0.59048489  0.92658947  0.41234869    -0.24300
H2219       H  0.54383384  0.08236433  0.39403268     0.04900
H2220       H  0.50204712  0.06281141  0.40252139     0.08100
H2221       H  0.51822179  0.06755073  0.35775364     0.08100
H2222       H  0.61802086  0.93036100  0.42092983     0.08100
H2223       H  0.58899864  0.90637266  0.39140073     0.08100
H2224       H  0.57566018  0.91718327  0.43557870     0.04900
C2225       C  0.68431290  0.05084759  0.28346088    -0.20900
C2226       C  0.68192361  0.04975693  0.32027625    -0.07500
C2227       C  0.69271865  0.07917061  0.34020110     0.13400
C2228       C  0.70596073  0.10877630  0.32281320    -0.21000
C2229       C  0.70908818  0.10945262  0.28622382    -0.07500
C2230       C  0.69806987  0.08037001  0.26618637     0.13400
C2231       C  0.70143529  0.08034926  0.22682946    -0.24300
H2232       H  0.67586482  0.02830416  0.26821838     0.14700
H2233       H  0.71569187  0.13087439  0.33796691     0.14700
C2234       C  0.69254288  0.07870190  0.37974932    -0.24300
H2235       H  0.69126790  0.05561628  0.21509346     0.04900
H2236       H  0.72940698  0.08302404  0.21953398     0.08100
H2237       H  0.68644014  0.10272622  0.21558777     0.08100
H2238       H  0.70808080  0.05598427  0.38947330     0.08100
H2239       H  0.66527066  0.07672119  0.38953894     0.08100
H2240       H  0.70420516  0.10304265  0.39090563     0.04900
C2241       C  0.70132423  0.86193252  0.32867725    -0.20900
C2242       C  0.70897473  0.86145798  0.29275919    -0.07500
C2243       C  0.70037804  0.89059175  0.27160989     0.13400
C2244       C  0.68478101  0.92005029  0.28710244    -0.21000
C2245       C  0.67846121  0.92140496  0.32341503    -0.07500
C2246       C  0.68639347  0.89169991  0.34442486     0.13400
C2247       C  0.68110667  0.89171750  0.38353380    -0.24300
H2248       H  0.70867605  0.83952863  0.34474302     0.14700
H2249       H  0.67849600  0.94265716  0.27089742     0.14700
C2250       C  0.70836743  0.89085387  0.23289902    -0.24300
H2251       H  0.69175866  0.86753930  0.39601163     0.04900
H2252       H  0.65275482  0.89258238  0.38923758     0.08100
H2253       H  0.69449850  0.91471925  0.39550357     0.08100
H2254       H  0.69495631  0.86842033  0.21991950     0.08100
H2255       H  0.73705021  0.88853275  0.22877037     0.08100
H2256       H  0.69942101  0.91555074  0.22010553     0.04900
C2257       C  0.82292019  0.07443159  0.08594890    -0.20900
C2258       C  0.79893726  0.04727877  0.09320114    -0.07500
C2259       C  0.77683014  0.05086391  0.12300417     0.13400
C2260       C  0.78057900  0.07995545  0.14536563    -0.21000
C2261       C  0.80529460  0.10627122  0.13890250    -0.07500
C2262       C  0.82634322  0.10387710  0.10837459     0.13400
C2263       C  0.85343171  0.13152947  0.10013450    -0.24300
H2264       H  0.83995266  0.07199789  0.06337679     0.14700
H2265       H  0.76381624  0.08233885  0.16810417     0.14700
C2266       C  0.74873366  0.02443895  0.13157171    -0.24300
H2267       H  0.86881781  0.12468163  0.07641152     0.04900
H2268       H  0.87193146  0.13419702  0.12250446     0.08100
H2269       H  0.84053522  0.15720807  0.09514144     0.08100
H2270       H  0.76108215  0.99982183  0.14088337     0.08100
H2271       H  0.73219710  0.01944762  0.10808763     0.08100
H2272       H  0.73126861  0.03376160  0.15291105     0.04900
C2273       C  0.77596838  0.88638566  0.14411515    -0.20900
C2274       C  0.80528854  0.86423376  0.14437440    -0.07500
C2275       C  0.83107546  0.86859282  0.11805036     0.13400
C2276       C  0.82784030  0.89620862  0.09341590    -0.21000
C2277       C  0.79885836  0.91895945  0.09373218    -0.07500
C2278       C  0.77184857  0.91279545  0.11854906     0.13400
C2279       C  0.73755049  0.93240847  0.11787711    -0.24300
H2280       H  0.75553033  0.88240893  0.16340059     0.14700
H2281       H  0.84858552  0.90076490  0.07457774     0.14700
C2282       C  0.86264044  0.84485437  0.11668436    -0.24300
H2283       H  0.71580949  0.91342751  0.11377287     0.04900
H2284       H  0.73603080  0.95207227  0.09644140     0.08100
H2285       H  0.73334235  0.94572446  0.14340532     0.08100
H2286       H  0.85427734  0.81727362  0.11205695     0.08100
H2287       H  0.87722911  0.84635177  0.14188767     0.08100
H2288       H  0.88075882  0.85243873  0.09520186     0.04900
C2289       C  0.66930263  0.50743882  0.03149757    -0.20900
C2290       C  0.67338586  0.52527600  0.99939688    -0.07500
C2291       C  0.66442169  0.50733352  0.96815415     0.13400
C2292       C  0.66281795  0.47055789  0.96881275    -0.21000
C2293       C  0.66770505  0.45209325  0.00041748    -0.07500
C2294       C  0.66507723  0.47093436  0.03230090     0.13400
C2295       C  0.65993386  0.45340230  0.06741275    -0.24300
H2296       H  0.67236195  0.52130371  0.05615432     0.14700
H2297       H  0.66092800  0.45649234  0.94415913     0.14700
C2298       C  0.65790922  0.52583457  0.93380822    -0.24300
H2299       H  0.63813920  0.46649384  0.08155305     0.04900
H2300       H  0.68420730  0.45568931  0.08338641     0.08100
H2301       H  0.65250756  0.42531703  0.06474009     0.08100
H2302       H  0.67934794  0.51983906  0.91511349     0.08100
H2303       H  0.65546436  0.55470713  0.93707509     0.08100
H2304       H  0.63269509  0.51656495  0.92250610     0.04900
C2305       C  0.72184913  0.36304404  0.08901528    -0.20900
C2306       C  0.74117172  0.36353205  0.05775566    -0.07500
C2307       C  0.77615003  0.35105034  0.05776011     0.13400
C2308       C  0.78980743  0.33602478  0.08847007    -0.21000
C2309       C  0.76952675  0.33342598  0.11890622    -0.07500
C2310       C  0.73548264  0.34785462  0.11956156     0.13400
C2311       C  0.71268196  0.34544773  0.15175785    -0.24300
H2312       H  0.69528141  0.37311489  0.08913110     0.14700
H2313       H  0.81610922  0.32550032  0.08851278     0.14700
C2314       C  0.79942087  0.35384727  0.02593407    -0.24300
H2315       H  0.68632119  0.35697476  0.14720221     0.04900
H2316       H  0.72506197  0.36001915  0.17374566     0.08100
H2317       H  0.70908124  0.31747782  0.15937144     0.08100
H2318       H  0.80033647  0.38155498  0.01670778     0.08100
H2319       H  0.78951943  0.33663811  0.00462729     0.08100
H2320       H  0.82669233  0.34546744  0.03186132     0.04900
C2321       C  0.74510270  0.37769017  0.91017559    -0.20900
C2322       C  0.72201536  0.35846685  0.93138722    -0.07500
C2323       C  0.71342525  0.32352636  0.92270517     0.13400
C2324       C  0.72978816  0.30788523  0.89394856    -0.21000
C2325       C  0.75454741  0.32632544  0.87371645    -0.07500
C2326       C  0.76168837  0.36198444  0.88136817     0.13400
C2327       C  0.78835857  0.38283210  0.86093124    -0.24300
H2328       H  0.75172512  0.40445898  0.91744026     0.14700
H2329       H  0.72357233  0.28075849  0.88766231     0.14700
C2330       C  0.68750285  0.30199848  0.94346860    -0.24300
H2331       H  0.79213375  0.40956891  0.87203520     0.04900
H2332       H  0.77958978  0.38601198  0.83333905     0.08100
H2333       H  0.81404761  0.36913113  0.86158139     0.08100
H2334       H  0.67520635  0.31705212  0.96508620     0.08100
H2335       H  0.70089756  0.27872871  0.95491887     0.08100
H2336       H  0.66618905  0.29281583  0.92580982     0.04900
C2337       C  0.92727892  0.25417154  0.05706734    -0.20900
C2338       C  0.96254528  0.24363704  0.06087618    -0.07500
C2339       C  0.97349505  0.23130386  0.09428915     0.13400
C2340       C  0.94870993  0.22837810  0.12179830    -0.21000
C2341       C  0.91310037  0.23761953  0.11721662    -0.07500
C2342       C  0.90269618  0.25129903  0.08423336     0.13400
C2343       C  0.86591765  0.26406516  0.07730722    -0.24300
H2344       H  0.91836221  0.26464424  0.03219361     0.14700
H2345       H  0.95724787  0.21848683  0.14708802     0.14700
C2346       C  0.01092304  0.22086224  0.10129331    -0.24300
H2347       H  0.86328530  0.27682631  0.05119606     0.04900
H2348       H  0.85865012  0.28373769  0.09742417     0.08100
H2349       H  0.84731001  0.24163476  0.07793222     0.08100
H2350       H  0.02840680  0.24387738  0.09732683     0.08100
H2351       H  0.01869181  0.19921978  0.08340703     0.08100
H2352       H  0.01470060  0.21151489  0.12866606     0.04900
C2353       C  0.96757475  0.21783526  0.90929601    -0.20900
C2354       C  0.96417508  0.24556853  0.93332907    -0.07500
C2355       C  0.93674968  0.27027970  0.92844078     0.13400
C2356       C  0.91183918  0.26501321  0.90167199    -0.21000
C2357       C  0.91443470  0.23659600  0.87846007    -0.07500
C2358       C  0.94340743  0.21342795  0.88153196     0.13400
C2359       C  0.94839977  0.18350173  0.85610764    -0.24300
H2360       H  0.98855664  0.19895660  0.91288181     0.14700
H2361       H  0.89073190  0.28378868  0.89817575     0.14700
C2362       C  0.93456615  0.30319860  0.95038628    -0.24300
H2363       H  0.97155171  0.16720260  0.86305157     0.04900
H2364       H  0.95258732  0.19392645  0.82923318     0.08100
H2365       H  0.92490928  0.16626383  0.85619645     0.08100
H2366       H  0.95951779  0.31809269  0.94826022     0.08100
H2367       H  0.92963363  0.29664516  0.97823983     0.08100
H2368       H  0.91301697  0.32071944  0.94146795     0.04900
C2369       C  0.45310961  0.50275561  0.03158124    -0.20900
C2370       C  0.44705125  0.52069938  0.99999921    -0.07500
C2371       C  0.45119428  0.50194017  0.96801490     0.13400
C2372       C  0.45186418  0.46512970  0.96910125    -0.21000
C2373       C  0.44818201  0.44697920  0.00100200    -0.07500
C2374       C  0.45365638  0.46596973  0.03265423     0.13400
C2375       C  0.45830093  0.44853842  0.06791361    -0.24300
H2376       H  0.45360294  0.51725745  0.05605144     0.14700
H2377       H  0.45119567  0.45073192  0.94458801     0.14700
C2378       C  0.45218742  0.51947515  0.93245472    -0.24300
H2379       H  0.46732391  0.46758170  0.08810512     0.04900
H2380       H  0.47854046  0.42768901  0.06600158     0.08100
H2381       H  0.43313692  0.43763742  0.07749385     0.08100
H2382       H  0.47096233  0.54180074  0.93284746     0.08100
H2383       H  0.42566909  0.52865747  0.92474793     0.08100
H2384       H  0.46101124  0.50096773  0.91174186     0.04900
C2385       C  0.39638551  0.60741454  0.09752699    -0.20900
C2386       C  0.37609495  0.60516569  0.06687008    -0.07500
C2387       C  0.34011491  0.61438089  0.06812943     0.13400
C2388       C  0.32667346  0.62993395  0.09855830    -0.21000
C2389       C  0.34774213  0.63480974  0.12819661    -0.07500
C2390       C  0.38243580  0.62175803  0.12841980     0.13400
C2391       C  0.40515904  0.62422489  0.16067960    -0.24300
H2392       H  0.42357429  0.59919227  0.09693426     0.14700
H2393       H  0.29974571  0.63900620  0.09903736     0.14700
C2394       C  0.31542710  0.60705951  0.03802024    -0.24300
H2395       H  0.43187209  0.61363628  0.15603491     0.04900
H2396       H  0.39317183  0.60875974  0.18226477     0.08100
H2397       H  0.40770875  0.65210933  0.16883791     0.08100
H2398       H  0.31727690  0.57892470  0.03040529     0.08100
H2399       H  0.32169167  0.62400479  0.01520153     0.08100
H2400       H  0.28777013  0.61242041  0.04527923     0.04900
C2401       C  0.38414422  0.65919676  0.89531915    -0.20900
C2402       C  0.35549065  0.64257225  0.87910068    -0.07500
C2403       C  0.34235394  0.61067030  0.89253566     0.13400
C2404       C  0.35740292  0.59692476  0.92318057    -0.21000
C2405       C  0.38515801  0.61440788  0.93994110    -0.07500
C2406       C  0.39933172  0.64527461  0.92558380     0.13400
C2407       C  0.43032912  0.66339068  0.94218230    -0.24300
H2408       H  0.39437684  0.68349702  0.88442684     0.14700
H2409       H  0.34711486  0.57288429  0.93453323     0.14700
C2410       C  0.31187286  0.59202705  0.87555369    -0.24300
H2411       H  0.43815707  0.68728670  0.92731357     0.04900
H2412       H  0.45302412  0.64512852  0.94281753     0.08100
H2413       H  0.42379027  0.67139061  0.96939299     0.08100
H2414       H  0.31894520  0.58408708  0.84846551     0.08100
H2415       H  0.28874230  0.60972458  0.87463026     0.08100
H2416       H  0.30442810  0.56791632  0.89025535     0.04900
C2417       C  0.18258151  0.75705633  0.06539891    -0.20900
C2418       C  0.15110243  0.73783318  0.06711157    -0.07500
C2419       C  0.14372033  0.71861366  0.09805760     0.13400
C2420       C  0.16856605  0.71821461  0.12560852    -0.21000
C2421       C  0.20079014  0.73630758  0.12306159    -0.07500
C2422       C  0.20744840  0.75647552  0.09251555     0.13400
C2423       C  0.24031171  0.77820593  0.08817295    -0.24300
H2424       H  0.18819176  0.77240615  0.04208587     0.14700
H2425       H  0.16301567  0.70310322  0.14907934     0.14700
C2426       C  0.11045956  0.69762705  0.10186652    -0.24300
H2427       H  0.23974041  0.79414207  0.06373123     0.04900
H2428       H  0.26357549  0.76079516  0.08654088     0.08100
H2429       H  0.24319208  0.79667208  0.11055510     0.08100
H2430       H  0.10857230  0.67787993  0.08050449     0.08100
H2431       H  0.08748745  0.71548181  0.10074052     0.08100
H2432       H  0.10952177  0.68335560  0.12730332     0.04900
C2433       C  0.17974455  0.76251241  0.93892691    -0.20900
C2434       C  0.15186206  0.73822243  0.93975082    -0.07500
C2435       C  0.14884805  0.71358818  0.91220147     0.13400
C2436       C  0.17371491  0.71378838  0.88482324    -0.21000
C2437       C  0.20216909  0.73754585  0.88441976    -0.07500
C2438       C  0.20472824  0.76264679  0.91174867     0.13400
C2439       C  0.23309708  0.79029169  0.91209440    -0.24300
H2440       H  0.18226828  0.78135207  0.96012548     0.14700
H2441       H  0.17138847  0.69458004  0.86394810     0.14700
C2442       C  0.12060275  0.68589661  0.91250777    -0.24300
H2443       H  0.23217167  0.80578451  0.88737952     0.04900
H2444       H  0.25918037  0.77772674  0.91491006     0.08100
H2445       H  0.22995949  0.80888363  0.93433028     0.08100
H2446       H  0.09443836  0.69857309  0.91136135     0.08100
H2447       H  0.12268145  0.66989937  0.93683113     0.08100
H2448       H  0.12280548  0.66783568  0.88973416     0.04900
loop_ 
_geom_bond_atom_site_label_1 
_geom_bond_atom_site_label_2 
_geom_bond_distance 
_geom_bond_site_symmetry_2 
_ccdc_geom_bond_type 
C1            N2   1.366       .  A
C1            N6   1.350   1_556  A
C1         C2434   1.494       .  S
N2            C3   1.371   1_556  A
C3            N4   1.370       .  A
C3           C51   1.495       .  S
N4            C5   1.366       .  A
C5            N6   1.354       .  A
C5         C2418   1.495       .  S
C7            N8   1.360       .  A
C7           N12   1.354       .  A
C7         C2386   1.478       .  S
N8            C9   1.365       .  A
C9           N10   1.352   1_554  A
C9         C2370   1.486   1_554  S
N10          C11   1.347       .  A
C11          N12   1.350   1_556  A
C11        C2405   1.453       .  S
C13          N14   1.370   1_655  A
C13          N18   1.354   1_554  A
C13        C2338   1.510       .  S
N14          C15   1.374   1_554  A
C15          N16   1.371       .  A
C15          C63   1.499       .  S
N16          C17   1.364   1_455  A
C17          N18   1.349       .  A
C17        C2354   1.489       .  S
C19          N20   1.355       .  A
C19          N24   1.354       .  A
C19        C2322   1.460       .  S
N20          C21   1.360       .  A
C21          N22   1.358   1_556  A
C21        C2293   1.483   1_556  S
N22          C23   1.353       .  A
C23          N24   1.352   1_554  A
C23        C2306   1.474       .  S
C25          N26   1.353       .  A
C25          N30   1.366       .  A
C25        C2277   1.491       .  S
N26          C27   1.354   1_565  A
C27          N28   1.371       .  A
C27        C2258   1.500       .  S
N28          C29   1.374   1_545  A
C29          N30   1.371       .  A
C29          C77   1.505   1_554  S
C31          N32   1.353   1_545  A
C31          N36   1.354       .  A
C31        C2226   1.474       .  S
N32          C33   1.356       .  A
C33          N34   1.359       .  A
C33        C2245   1.479       .  S
N34          C35   1.363       .  A
C35          N36   1.360   1_565  A
C35        C2210   1.488       .  S
C37          N38   1.369       .  A
C37          N42   1.350   1_545  A
C37        C2178   1.509       .  S
N38          C39   1.374   1_545  A
C39          N40   1.373       .  A
C39          C87   1.500   1_556  S
N40          C41   1.367       .  A
C41          N42   1.348       .  A
C41        C2194   1.503       .  S
C43          N44   1.354       .  A
C43          N48   1.352       .  A
C43        C2165   1.468       .  S
N44          C45   1.355   1_565  A
C45          N46   1.358       .  A
C45        C2146   1.483       .  S
N46          C47   1.362   1_545  A
C47          N48   1.354       .  A
C47        C2130   1.489       .  S
C49          N50   1.366   1_655  A
C49          N54   1.352       .  A
C49        C2098   1.505       .  S
N50          C51   1.372       .  A
C51          N52   1.370   1_554  A
N52          C53   1.365   1_455  A
C53          N54   1.355   1_556  A
C53        C2114   1.508       .  S
C55          N56   1.351       .  A
C55          N60   1.357       .  A
C55        C2069   1.464       .  S
N56          C57   1.355   1_554  A
C57          N58   1.359       .  A
C57        C2290   1.484       .  S
N58          C59   1.358       .  A
C59          N60   1.358   1_556  A
C59        C2082   1.485       .  S
C61          N62   1.365       .  A
C61          N66   1.351       .  A
C61        C2050   1.493       .  S
N62          C63   1.371       .  A
C63          N64   1.372   1_556  A
N64          C65   1.369       .  A
C65          N66   1.351   1_554  A
C65        C2037   1.498       .  S
C67          N68   1.356       .  A
C67          N72   1.358       .  A
C67        C2018   1.480       .  S
N68          C69   1.353   1_556  A
C69          N70   1.352       .  A
C69        C2002   1.470       .  S
N70          C71   1.354       .  A
C71          N72   1.363   1_554  A
C71        C2373   1.489       .  S
C73          N74   1.349       .  A
C73          N78   1.368       .  A
C73        C1986   1.495       .  S
N74          C75   1.349   1_565  A
C75          N76   1.370       .  A
C75        C1973   1.499       .  S
N76          C77   1.374   1_545  A
C77          N78   1.374       .  A
C79          N80   1.356   1_545  A
C79          N84   1.357       .  A
C79        C1938   1.479       .  S
N80          C81   1.355       .  A
C81          N82   1.354       .  A
C81        C1957   1.486       .  S
N82          C83   1.361       .  A
C83          N84   1.362   1_565  A
C83        C2133   1.488       .  S
C85          N86   1.368       .  A
C85          N90   1.354   1_545  A
C85        C1906   1.503       .  S
N86          C87   1.372   1_545  A
C87          N88   1.371       .  A
N88          C89   1.366       .  A
C89          N90   1.353       .  A
C89        C1922   1.498       .  S
C91          N92   1.361       .  A
C91          N96   1.355       .  A
C91        C1890   1.491       .  S
N92          C93   1.364       .  A
C93          N94   1.352   1_565  A
C93        C2213   1.486       .  S
N94          C95   1.347       .  A
C95          N96   1.348   1_545  A
C95        C1877   1.452       .  S
C97          N98   1.371       .  A
C97         N102   1.354       .  A
C97        C1861   1.506   1_455  S
N98          C99   1.375       .  A
C99         N100   1.371       .  A
C99         C111   1.504   1_545  S
N100        C101   1.365       .  A
C101        N102   1.353       .  A
C101       C1842   1.488       .  S
C103        N104   1.358       .  A
C103        N108   1.357       .  A
C103       C1826   1.487   1_455  S
N104        C105   1.354       .  A
C105        N106   1.351       .  A
C105       C1813   1.466       .  S
N106        C107   1.353       .  A
C107        N108   1.361       .  A
C107       C1797   1.487       .  S
C109        N110   1.369       .  A
C109        N114   1.354       .  A
C109       C1762   1.499       .  S
N110        C111   1.373       .  A
C111        N112   1.370       .  A
N112        C113   1.367       .  A
C113        N114   1.352       .  A
C113       C1778   1.487   1_455  S
C115        N116   1.353       .  A
C115        N120   1.352       .  A
C115       C1746   1.467   1_455  S
N116        C117   1.360       .  A
C117        N118   1.361       .  A
C117       C1714   1.479       .  S
N118        C119   1.354       .  A
C119        N120   1.351       .  A
C119       C1730   1.463       .  S
C121        N122   1.369       .  A
C121        N126   1.357       .  A
C121       C1698   1.503       .  S
N122        C123   1.371       .  A
C123        N124   1.372       .  A
C123        C137   1.503   1_565  S
N124        C125   1.366       .  A
C125        N126   1.353       .  A
C125       C1682   1.495   1_455  S
C127        N128   1.351       .  A
C127        N132   1.354       .  A
C127       C1669   1.473       .  S
N128        C129   1.350       .  A
C129        N130   1.359       .  A
C129       C1717   1.484       .  S
N130        C131   1.357       .  A
C131        N132   1.357       .  A
C131       C1650   1.461   1_455  S
C133        N134   1.352       .  A
C133        N138   1.364       .  A
C133       C1637   1.489   1_455  S
N134        C135   1.354       .  A
C135        N136   1.372       .  A
C135       C1618   1.511       .  S
N136        C137   1.375       .  A
C137        N138   1.370       .  A
C139        N140   1.354       .  A
C139        N144   1.353       .  A
C139       C1586   1.475       .  S
N140        C141   1.359       .  A
C141        N142   1.357       .  A
C141       C1794   1.488       .  S
N142        C143   1.355       .  A
C143        N144   1.354       .  A
C143       C1602   1.470   1_455  S
C145        N146   1.364       .  A
C145        N150   1.352       .  A
C145       C1554   1.488       .  S
N146        C147   1.369       .  A
C147        N148   1.372       .  A
C147        C291   1.496       .  S
N148        C149   1.367       .  A
C149        N150   1.350       .  A
C149       C1570   1.491       .  S
C151        N152   1.353       .  A
C151        N156   1.349       .  A
C151       C1541   1.467       .  S
N152        C153   1.358       .  A
C153        N154   1.363       .  A
C153       C1509   1.487       .  S
N154        C155   1.357       .  A
C155        N156   1.353       .  A
C155       C1522   1.485       .  S
O157       Zr193   2.458       .  S
O157        C168   1.296       .  A
O158       Zr192   2.446       .  S
O158        C169   1.293       .  A
O159       Zr165   2.427       .  S
O159        C170   1.290       .  A
O160       Zr165   2.468       .  S
O160        C171   1.297       .  A
O161       Zr195   2.435       .  S
O161        C171   1.290       .  A
O162       Zr194   2.427       .  S
O162        C170   1.291       .  A
O163       Zr165   2.417       .  S
O163        C169   1.288       .  A
O164       Zr165   2.433       .  S
O164        C168   1.291       .  A
Zr165       O166   2.332       .  S
Zr165       O167   2.345       .  S
Zr165       O175   2.328       .  S
Zr165       O173   2.358       .  S
O166       Zr192   2.353       .  S
O166       Zr195   2.336       .  S
O167       Zr193   2.329       .  S
O167       Zr194   2.347       .  S
C168       C2421   1.495       .  S
C169       C1666   1.461       .  S
C170       C1525   1.465       .  S
C171       C1701   1.499       .  S
H172        O173   0.966       .  S
O173       Zr192   2.351       .  S
O173       Zr194   2.341       .  S
H174        O175   0.966       .  S
O175       Zr193   2.340       .  S
O175       Zr195   2.333       .  S
O176       Zr192   2.483       .  S
O176        C199   1.302       .  A
O177       Zr193   2.428       .  S
O177        C200   1.290       .  A
O178       Zr194   2.451       .  S
O178        C201   1.294       .  A
O179       Zr195   2.437       .  S
O179        C202   1.291       .  A
O180       Zr195   2.466       .  S
O180        C203   1.298       .  A
O181       Zr194   2.437       .  S
O181        C204   1.291       .  A
O182       Zr196   2.481       .  S
O182        C205   1.300       .  A
O183       Zr196   2.453       .  S
O183        C206   1.296       .  A
O184       Zr194   2.443       .  S
O184        C205   1.293       .  A
O185       Zr195   2.408       .  S
O185        C206   1.286       .  A
O186       Zr192   2.435       .  S
O186        C201   1.291       .  A
O187       Zr193   2.444       .  S
O187        C204   1.294       .  A
O188       Zr193   2.443       .  S
O188        C203   1.292       .  A
O189       Zr192   2.429       .  S
O189        C202   1.291       .  A
O190       Zr196   2.438       .  S
O190        C199   1.290       .  A
O191       Zr196   2.414       .  S
O191        C200   1.288       .  A
Zr192       O198   2.336       .  S
Zr192       O210   2.336       .  S
Zr193       O197   2.345       .  S
Zr193       O208   2.348       .  S
Zr194       O198   2.336       .  S
Zr194       O208   2.338       .  S
Zr195       O197   2.334       .  S
Zr195       O210   2.361       .  S
Zr196       O197   2.354       .  S
Zr196       O198   2.333       .  S
Zr196       O210   2.344       .  S
Zr196       O208   2.334       .  S
C199       C1474   1.514       .  S
C200       C1461   1.454       .  S
C201       C1557   1.494       .  S
C202       C1493   1.467       .  S
C203       C1925   1.501       .  S
C204       C2389   1.471       .  S
C205       C1442   1.509       .  S
C206       C1893   1.477       .  S
H207        O208   0.965       .  S
H209        O210   0.966       .  S
C211        N212   1.372       .  A
C211        N216   1.355       .  A
C211       C1426   1.513       .  S
N212        C213   1.375       .  A
C213        N214   1.373       .  A
C213        C603   1.509       .  S
N214        C215   1.368       .  A
C215        N216   1.353       .  A
C215       C1410   1.502       .  S
C217        N218   1.351       .  A
C217        N222   1.355       .  A
C217       C1394   1.462       .  S
N218        C219   1.350       .  A
C219        N220   1.356       .  A
C219       C1378   1.484       .  S
N220        C221   1.360       .  A
C221        N222   1.362       .  A
C221       C1362   1.484       .  S
O223       Zr259   2.471       .  S
O223        C234   1.298       .  A
O224       Zr258   2.441       .  S
O224        C235   1.292       .  A
O225       Zr231   2.443       .  S
O225        C236   1.292       .  A
O226       Zr231   2.470       .  S
O226        C237   1.298       .  A
O227       Zr261   2.433       .  S
O227        C237   1.291       .  A
O228       Zr260   2.410       .  S
O228        C236   1.287       .  A
O229       Zr231   2.417       .  S
O229        C235   1.288       .  A
O230       Zr231   2.431       .  S
O230        C234   1.291       .  A
Zr231       O232   2.333       .  S
Zr231       O233   2.342       .  S
Zr231       O241   2.334       .  S
Zr231       O239   2.356       .  S
O232       Zr258   2.347       .  S
O232       Zr261   2.340       .  S
O233       Zr259   2.336       .  S
O233       Zr260   2.355       .  S
C234       C2181   1.509       .  S
C235       C2021   1.462       .  S
C236       C1314   1.456       .  S
C237       C2053   1.495       .  S
H238        O239   0.966       .  S
O239       Zr258   2.344       .  S
O239       Zr260   2.336       .  S
H240        O241   0.966       .  S
O241       Zr259   2.331       .  S
O241       Zr261   2.330       .  S
O242       Zr258   2.467       .  S
O242        C265   1.297       .  A
O243       Zr259   2.441       .  S
O243        C266   1.293       .  A
O244       Zr260   2.473       .  S
O244        C267   1.298       .  A
O245       Zr261   2.431       .  S
O245        C268   1.290       .  A
O246       Zr261   2.469       .  S
O246        C269   1.297       .  A
O247       Zr260   2.444       .  S
O247        C270   1.293       .  A
O248       Zr262   2.486       .  S
O248        C271   1.301       .  A
O249       Zr262   2.444       .  S
O249        C272   1.292       .  A
O250       Zr260   2.432       .  S
O250        C271   1.290       .  A
O251       Zr261   2.415       .  S
O251        C272   1.288       .  A
O252       Zr258   2.418       .  S
O252        C267   1.288       .  A
O253       Zr259   2.426       .  S
O253        C270   1.290       .  A
O254       Zr259   2.450       .  S
O254        C269   1.293       .  A
O255       Zr258   2.416       .  S
O255        C268   1.288       .  A
O256       Zr262   2.436       .  S
O256        C265   1.291       .  A
O257       Zr262   2.431       .  S
O257        C266   1.292       .  A
Zr258       O264   2.336       .  S
Zr258       O276   2.331       .  S
Zr259       O263   2.343       .  S
Zr259       O274   2.361       .  S
Zr260       O264   2.329       .  S
Zr260       O274   2.343       .  S
Zr261       O263   2.339       .  S
Zr261       O276   2.356       .  S
Zr262       O263   2.360       .  S
Zr262       O264   2.331       .  S
Zr262       O276   2.351       .  S
Zr262       O274   2.335       .  S
C265       C1330   1.495       .  S
C266       C1381   1.475       .  S
C267       C1298   1.491       .  S
C268       C1349   1.459       .  S
C269       C1845   1.489       .  S
C270       C2149   1.468       .  S
C271       C1413   1.507       .  S
C272       C1810   1.456       .  S
H273        O274   0.966       .  S
H275        O276   0.965       .  S
C277        N278   1.369       .  A
C277        N282   1.349       .  A
C277       C1477   1.506       .  S
N278        C279   1.374       .  A
C279        N280   1.377       .  A
C279        C437   1.511       .  S
N280        C281   1.373       .  A
C281        N282   1.352       .  A
C281       C1282   1.511       .  S
C283        N284   1.356       .  A
C283        N288   1.354       .  A
C283       C1269   1.466       .  S
N284        C285   1.357       .  A
C285        N286   1.357       .  A
C285       C1490   1.486       .  S
N286        C287   1.358       .  A
C287        N288   1.357       .  A
C287       C1365   1.484       .  S
C289        N290   1.367       .  A
C289        N294   1.353       .  A
C289       C1250   1.499       .  S
N290        C291   1.371       .  A
C291        N292   1.369       .  A
N292        C293   1.366       .  A
C293        N294   1.352       .  A
C293       C1333   1.492       .  S
C295        N296   1.356       .  A
C295        N300   1.360       .  A
C295       C1346   1.479       .  S
N296        C297   1.352       .  A
C297        N298   1.352       .  A
C297       C1234   1.479       .  S
N298        C299   1.360       .  A
C299        N300   1.363       .  A
C299       C1221   1.488       .  S
O301       Zr337   2.484       .  S
O301        C312   1.300       .  A
O302       Zr336   2.435       .  S
O302        C313   1.291       .  A
O303       Zr309   2.472       .  S
O303        C314   1.299       .  A
O304       Zr309   2.446       .  S
O304        C315   1.293       .  A
O305       Zr339   2.423       .  S
O305        C315   1.290       .  A
O306       Zr338   2.425       .  S
O306        C314   1.290       .  A
O307       Zr309   2.414       .  S
O307        C313   1.290       .  A
O308       Zr309   2.429       .  S
O308        C312   1.290       .  A
Zr309       O310   2.349       .  S
Zr309       O311   2.330       .  S
Zr309       O319   2.341       .  S
Zr309       O317   2.343       .  S
O310       Zr336   2.347       .  S
O310       Zr339   2.327       .  S
O311       Zr337   2.321       .  S
O311       Zr338   2.327       .  S
C312       C2437   1.500       .  S
C313       C1733   1.479       .  S
C314       C1765   1.498       .  S
C315       C1237   1.464       .  S
H316        O317   0.968       .  S
O317       Zr336   2.361       .  S
O317       Zr338   2.347       .  S
H318        O319   0.966       .  S
O319       Zr337   2.337       .  S
O319       Zr339   2.363       .  S
O320       Zr336   2.487       .  S
O320        C343   1.301       .  A
O321       Zr337   2.438       .  S
O321        C344   1.292       .  A
O322       Zr338   2.435       .  S
O322        C345   1.291       .  A
O323       Zr339   2.488       .  S
O323        C346   1.301       .  A
O324       Zr339   2.444       .  S
O324        C347   1.293       .  A
O325       Zr338   2.470       .  S
O325        C348   1.297       .  A
O326       Zr340   2.436       .  S
O326        C349   1.291       .  A
O327       Zr340   2.493       .  S
O327        C350   1.302       .  A
O328       Zr338   2.405       .  S
O328        C349   1.286       .  A
O329       Zr339   2.435       .  S
O329        C350   1.290       .  A
O330       Zr336   2.429       .  S
O330        C345   1.290       .  A
O331       Zr337   2.436       .  S
O331        C348   1.291       .  A
O332       Zr337   2.397       .  S
O332        C347   1.286       .  A
O333       Zr336   2.423       .  S
O333        C346   1.289       .  A
O334       Zr340   2.432       .  S
O334        C343   1.291       .  A
O335       Zr340   2.421       .  S
O335        C344   1.290       .  A
Zr336       O342   2.324       .  S
Zr336       O354   2.340       .  S
Zr337       O341   2.359       .  S
Zr337       O352   2.341       .  S
Zr338       O342   2.349       .  S
Zr338       O352   2.335       .  S
Zr339       O341   2.341       .  S
Zr339       O354   2.338       .  S
Zr340       O341   2.326       .  S
Zr340       O342   2.342       .  S
Zr340       O354   2.329       .  S
Zr340       O352   2.367       .  S
C343       C1285   1.507       .  S
C344       C1202   1.464       .  S
C345       C1266   1.461       .  S
C346       C1253   1.502       .  S
C347       C2402   1.459       .  S
C348       C2197   1.508       .  S
C349       C2162   1.452       .  S
C350       C1186   1.503       .  S
H351        O352   0.966       .  S
H353        O354   0.966       .  S
C355        N356   1.353       .  A
C355        N360   1.369       .  A
C355       C1173   1.495       .  S
N356        C357   1.351       .  A
C357        N358   1.365       .  A
C357       C1154   1.493       .  S
N358        C359   1.371       .  A
C359        N360   1.372       .  A
C359        C459   1.501       .  S
C361        N362   1.359       .  A
C361        N366   1.355       .  A
C361       C1125   1.490       .  S
N362        C363   1.359       .  A
C363        N364   1.358       .  A
C363       C1506   1.485   1_655  S
N364        C365   1.352       .  A
C365        N366   1.353       .  A
C365       C1141   1.461       .  S
C367        N368   1.365       .  A
C367        N372   1.355       .  A
C367       C1106   1.494       .  S
N368        C369   1.368       .  A
C369        N370   1.374       .  A
C369        C527   1.498       .  S
N370        C371   1.369       .  A
C371        N372   1.355       .  A
C371       C1445   1.512       .  S
C373        N374   1.358       .  A
C373        N378   1.353       .  A
C373       C1093   1.484       .  S
N374        C375   1.360       .  A
C375        N376   1.354       .  A
C375       C1074   1.484       .  S
N376        C377   1.350       .  A
C377        N378   1.352       .  A
C377       C1458   1.453       .  S
O379       Zr415   2.484       .  S
O379        C390   1.300       .  A
O380       Zr414   2.432       .  S
O380        C391   1.290       .  A
O381       Zr387   2.470       .  S
O381        C392   1.297       .  A
O382       Zr387   2.434       .  S
O382        C393   1.291       .  A
O383       Zr417   2.423       .  S
O383        C393   1.290       .  A
O384       Zr416   2.444       .  S
O384        C392   1.293       .  A
O385       Zr387   2.416       .  S
O385        C391   1.288       .  A
O386       Zr387   2.430       .  S
O386        C390   1.289       .  A
Zr387       O388   2.345       .  S
Zr387       O389   2.335       .  S
Zr387       O397   2.348       .  S
Zr387       O395   2.334       .  S
O388       Zr414   2.338       .  S
O388       Zr417   2.331       .  S
O389       Zr415   2.342       .  S
O389       Zr416   2.337       .  S
C390       C2274   1.489       .  S
C391       C2066   1.455       .  S
C392       C2101   1.501       .  S
C393       C1090   1.465       .  S
H394        O395   0.966       .  S
O395       Zr414   2.356       .  S
O395       Zr416   2.345       .  S
H396        O397   0.966       .  S
O397       Zr415   2.343       .  S
O397       Zr417   2.359       .  S
O398       Zr414   2.460       .  S
O398        C421   1.296       .  A
O399       Zr415   2.462       .  S
O399        C422   1.296       .  A
O400       Zr416   2.436       .  S
O400        C423   1.291       .  A
O401       Zr417   2.480       .  S
O401        C424   1.300       .  A
O402       Zr417   2.448       .  S
O402        C425   1.293       .  A
O403       Zr416   2.476       .  S
O403        C426   1.300       .  A
O404       Zr418   2.430       .  S
O404        C427   1.290       .  A
O405       Zr418   2.475       .  S
O405        C428   1.299       .  A
O406       Zr416   2.426       .  S
O406        C427   1.291       .  A
O407       Zr417   2.437       .  S
O407        C428   1.291       .  A
O408       Zr414   2.430       .  S
O408        C423   1.291       .  A
O409       Zr415   2.436       .  S
O409        C426   1.291       .  A
O410       Zr415   2.421       .  S
O410        C425   1.289       .  A
O411       Zr414   2.431       .  S
O411        C424   1.290       .  A
O412       Zr418   2.442       .  S
O412        C421   1.292       .  A
O413       Zr418   2.411       .  S
O413        C422   1.289       .  A
Zr414       O420   2.332       .  S
Zr414       O432   2.340       .  S
Zr415       O419   2.356       .  S
Zr415       O430   2.344       .  S
Zr416       O420   2.358       .  S
Zr416       O430   2.331       .  S
Zr417       O419   2.343       .  S
Zr417       O432   2.333       .  S
Zr418       O419   2.331       .  S
Zr418       O420   2.344       .  S
Zr418       O432   2.331       .  S
Zr418       O430   2.359       .  S
C421       C1157   1.495       .  S
C422       C1058   1.479       .  S
C423       C1122   1.470       .  S
C424       C1109   1.500       .  S
C425       C2242   1.465       .  S
C426       C1685   1.497       .  S
C427       C1653   1.458       .  S
C428       C1042   1.501       .  S
H429        O430   0.965       .  S
H431        O432   0.966       .  S
C433        N434   1.349       .  A
C433        N438   1.371       .  A
C433       C1026   1.497       .  S
N434        C435   1.350       .  A
C435        N436   1.370       .  A
C435       C1045   1.500       .  S
N436        C437   1.375       .  A
C437        N438   1.374       .  A
C439        N440   1.354       .  A
C439        N444   1.355       .  A
C439       C1010   1.464       .  S
N440        C441   1.360       .  A
C441        N442   1.357       .  A
C441        C994   1.485       .  S
N442        C443   1.352       .  A
C443        N444   1.354       .  A
C443       C1061   1.469       .  S
C445        N446   1.372       .  A
C445        N450   1.359       .  A
C445        C978   1.520       .  S
N446        C447   1.374       .  A
C447        N448   1.373       .  A
C447        C593   1.507       .  S
N448        C449   1.366       .  A
C449        N450   1.353       .  A
C449       C1189   1.503       .  S
C451        N452   1.353       .  A
C451        N456   1.356       .  A
C451       C1205   1.476       .  S
N452        C453   1.353       .  A
C453        N454   1.353       .  A
C453        C965   1.465       .  S
N454        C455   1.354       .  A
C455        N456   1.361       .  A
C455       C1077   1.486       .  S
C457        N458   1.369       .  A
C457        N462   1.353       .  A
C457        C930   1.501       .  S
N458        C459   1.373       .  A
C459        N460   1.372       .  A
N460        C461   1.366       .  A
C461        N462   1.353       .  A
C461        C946   1.500       .  S
C463        N464   1.352       .  A
C463        N468   1.353       .  A
C463        C914   1.473       .  S
N464        C465   1.353       .  A
C465        N466   1.357       .  A
C465        C898   1.462       .  S
N466        C467   1.361       .  A
C467        N468   1.355       .  A
C467       C1218   1.488   1_655  S
O469       Zr505   2.467       .  S
O469        C480   1.297       .  A
O470       Zr504   2.471       .  S
O470        C481   1.298       .  A
O471       Zr477   2.434       .  S
O471        C482   1.291       .  A
O472       Zr477   2.481       .  S
O472        C483   1.300       .  A
O473       Zr507   2.425       .  S
O473        C483   1.289       .  A
O474       Zr506   2.420       .  S
O474        C482   1.289       .  A
O475       Zr477   2.406       .  S
O475        C481   1.285       .  A
O476       Zr477   2.431       .  S
O476        C480   1.290       .  A
Zr477       O478   2.329       .  S
Zr477       O479   2.340       .  S
Zr477       O487   2.326       .  S
Zr477       O485   2.365       .  S
O478       Zr504   2.357       .  S
O478       Zr507   2.345       .  S
O479       Zr505   2.326       .  S
O479       Zr506   2.357       .  S
C480       C2117   1.503       .  S
C481       C1749   1.484       .  S
C482        C917   1.461       .  S
C483       C1781   1.488       .  S
H484        O485   0.965       .  S
O485       Zr504   2.345       .  S
O485       Zr506   2.336       .  S
H486        O487   0.966       .  S
O487       Zr505   2.329       .  S
O487       Zr507   2.335       .  S
O488       Zr504   2.495       .  S
O488        C511   1.303       .  A
O489       Zr505   2.425       .  S
O489        C512   1.289       .  A
O490       Zr506   2.467       .  S
O490        C513   1.297       .  A
O491       Zr507   2.447       .  S
O491        C514   1.294       .  A
O492       Zr507   2.486       .  S
O492        C515   1.301       .  A
O493       Zr506   2.437       .  S
O493        C516   1.291       .  A
O494       Zr508   2.473       .  S
O494        C517   1.298       .  A
O495       Zr508   2.447       .  S
O495        C518   1.293       .  A
O496       Zr506   2.449       .  S
O496        C517   1.294       .  A
O497       Zr507   2.424       .  S
O497        C518   1.290       .  A
O498       Zr504   2.437       .  S
O498        C513   1.292       .  A
O499       Zr505   2.423       .  S
O499        C516   1.290       .  A
O500       Zr505   2.430       .  S
O500        C515   1.290       .  A
O501       Zr504   2.421       .  S
O501        C514   1.290       .  A
O502       Zr508   2.413       .  S
O502        C511   1.288       .  A
O503       Zr508   2.416       .  S
O503        C512   1.288       .  A
Zr504       O510   2.333       .  S
Zr504       O522   2.350       .  S
Zr505       O509   2.342       .  S
Zr505       O520   2.359       .  S
Zr506       O510   2.325       .  S
Zr506       O520   2.344       .  S
Zr507       O509   2.331       .  S
Zr507       O522   2.362       .  S
Zr508       O509   2.344       .  S
Zr508       O510   2.328       .  S
Zr508       O522   2.351       .  S
Zr508       O520   2.336       .  S
C511       C1029   1.503       .  S
C512        C962   1.452       .  S
C513        C949   1.504       .  S
C514       C1013   1.477       .  S
C515       C1989   1.502       .  S
C516       C2085   1.463       .  S
C517        C981   1.520       .  S
C518       C1954   1.469       .  S
H519        O520   0.966       .  S
H521        O522   0.966       .  S
C523        N524   1.351       .  A
C523        N528   1.362       .  A
C523        C866   1.484       .  S
N524        C525   1.351       .  A
C525        N526   1.371       .  A
C525        C882   1.502       .  S
N526        C527   1.375       .  A
C527        N528   1.367       .  A
C529        N530   1.359       .  A
C529        N534   1.357       .  A
C529        C853   1.478       .  S
N530        C531   1.359       .  A
C531        N532   1.355       .  A
C531        C834   1.487       .  S
N532        C533   1.360       .  A
C533        N534   1.359       .  A
C533        C818   1.489       .  S
O535       Zr571   2.475       .  S
O535        C546   1.299       .  A
O536       Zr570   2.439       .  S
O536        C547   1.291       .  A
O537       Zr543   2.439       .  S
O537        C548   1.291       .  A
O538       Zr543   2.478       .  S
O538        C549   1.299       .  A
O539       Zr573   2.429       .  S
O539        C549   1.289       .  A
O540       Zr572   2.420       .  S
O540        C548   1.289       .  A
O541       Zr543   2.425       .  S
O541        C547   1.290       .  A
O542       Zr543   2.437       .  S
O542        C546   1.291       .  A
Zr543       O544   2.330       .  S
Zr543       O545   2.343       .  S
Zr543       O553   2.339       .  S
Zr543       O551   2.362       .  S
O544       Zr570   2.355       .  S
O544       Zr573   2.341       .  S
O545       Zr571   2.330       .  S
O545       Zr572   2.347       .  S
C546       C2341   1.506       .  S
C547       C1605   1.459       .  S
C548       C1138   1.462       .  S
C549       C1634   1.490       .  S
H550        O551   0.965       .  S
O551       Zr570   2.347       .  S
O551       Zr572   2.333       .  S
H552        O553   0.966       .  S
O553       Zr571   2.340       .  S
O553       Zr573   2.335       .  S
O554       Zr570   2.479       .  S
O554        C577   1.301       .  A
O555       Zr571   2.457       .  S
O555        C578   1.295       .  A
O556       Zr572   2.472       .  S
O556        C579   1.298       .  A
O557       Zr573   2.444       .  S
O557        C580   1.292       .  A
O558       Zr573   2.478       .  S
O558        C581   1.300       .  A
O559       Zr572   2.433       .  S
O559        C582   1.291       .  A
O560       Zr574   2.479       .  S
O560        C583   1.300       .  A
O561       Zr574   2.451       .  S
O561        C584   1.294       .  A
O562       Zr572   2.427       .  S
O562        C583   1.289       .  A
O563       Zr573   2.419       .  S
O563        C584   1.289       .  A
O564       Zr570   2.428       .  S
O564        C579   1.289       .  A
O565       Zr571   2.429       .  S
O565        C582   1.291       .  A
O566       Zr571   2.425       .  S
O566        C581   1.288       .  A
O567       Zr570   2.408       .  S
O567        C580   1.287       .  A
O568       Zr574   2.440       .  S
O568        C577   1.291       .  A
O569       Zr574   2.410       .  S
O569        C578   1.287       .  A
Zr570       O576   2.327       .  S
Zr570       O588   2.334       .  S
Zr571       O575   2.343       .  S
Zr571       O586   2.357       .  S
Zr572       O576   2.333       .  S
Zr572       O586   2.345       .  S
Zr573       O575   2.331       .  S
Zr573       O588   2.363       .  S
Zr574       O575   2.354       .  S
Zr574       O576   2.331       .  S
Zr574       O588   2.344       .  S
Zr574       O586   2.342       .  S
C577        C786   1.510       .  S
C578        C850   1.463       .  S
C579       C1170   1.491       .  S
C580        C802   1.457       .  S
C581       C2261   1.489       .  S
C582       C2309   1.465       .  S
C583        C885   1.497       .  S
C584       C2229   1.463       .  S
H585        O586   0.965       .  S
H587        O588   0.965       .  S
C589        N590   1.348       .  A
C589        N594   1.364       .  A
C589       C1301   1.489       .  S
N590        C591   1.349       .  A
C591        N592   1.374       .  A
C591        C770   1.508       .  S
N592        C593   1.377       .  A
C593        N594   1.371       .  A
C595        N596   1.350       .  A
C595        N600   1.353       .  A
C595       C1317   1.466       .  S
N596        C597   1.352       .  A
C597        N598   1.364       .  A
C597        C821   1.487       .  S
N598        C599   1.360       .  A
C599        N600   1.358       .  A
C599        C754   1.486       .  S
C601        N602   1.369       .  A
C601        N606   1.352       .  A
C601        C741   1.505       .  S
N602        C603   1.375       .  A
C603        N604   1.375       .  A
N604        C605   1.371       .  A
C605        N606   1.353       .  A
C605        C789   1.506       .  S
C607        N608   1.354       .  A
C607        N612   1.354       .  A
C607        C805   1.473       .  S
N608        C609   1.359       .  A
C609        N610   1.359       .  A
C609        C997   1.484       .  S
N610        C611   1.356       .  A
C611        N612   1.353       .  A
C611        C725   1.479       .  S
O613       Zr649   2.484       .  S
O613        C624   1.301       .  A
O614       Zr648   2.448       .  S
O614        C625   1.293       .  A
O615       Zr621   2.492       .  S
O615        C626   1.302       .  A
O616       Zr621   2.436       .  S
O616        C627   1.291       .  A
O617       Zr651   2.427       .  S
O617        C627   1.291       .  A
O618       Zr650   2.437       .  S
O618        C626   1.290       .  A
O619       Zr621   2.418       .  S
O619        C625   1.289       .  A
O620       Zr621   2.420       .  S
O620        C624   1.287       .  A
Zr621       O622   2.360       .  S
Zr621       O623   2.333       .  S
Zr621       O631   2.352       .  S
Zr621       O629   2.326       .  S
O622       Zr648   2.343       .  S
O622       Zr651   2.335       .  S
O623       Zr649   2.335       .  S
O623       Zr650   2.331       .  S
C624       C2357   1.486       .  S
C625       C1829   1.470       .  S
C626       C1858   1.502       .  S
C627        C901   1.458       .  S
H628        O629   0.965       .  S
O629       Zr648   2.364       .  S
O629       Zr650   2.346       .  S
H630        O631   0.965       .  S
O631       Zr649   2.334       .  S
O631       Zr651   2.361       .  S
O632       Zr648   2.487       .  S
O632        C655   1.301       .  A
O633       Zr649   2.444       .  S
O633        C656   1.293       .  A
O634       Zr650   2.452       .  S
O634        C657   1.294       .  A
O635       Zr651   2.488       .  S
O635        C658   1.301       .  A
O636       Zr651   2.444       .  S
O636        C659   1.292       .  A
O637       Zr650   2.481       .  S
O637        C660   1.301       .  A
O638       Zr652   2.443       .  S
O638        C661   1.293       .  A
O639       Zr652   2.484       .  S
O639        C662   1.302       .  A
O640       Zr650   2.414       .  S
O640        C661   1.288       .  A
O641       Zr651   2.426       .  S
O641        C662   1.288       .  A
O642       Zr648   2.406       .  S
O642        C657   1.287       .  A
O643       Zr649   2.426       .  S
O643        C660   1.288       .  A
O644       Zr649   2.414       .  S
O644        C659   1.289       .  A
O645       Zr648   2.436       .  S
O645        C658   1.291       .  A
O646       Zr652   2.440       .  S
O646        C655   1.291       .  A
O647       Zr652   2.432       .  S
O647        C656   1.291       .  A
Zr648       O654   2.338       .  S
Zr648       O666   2.330       .  S
Zr649       O653   2.347       .  S
Zr649       O664   2.346       .  S
Zr650       O654   2.360       .  S
Zr650       O664   2.341       .  S
Zr651       O653   2.338       .  S
Zr651       O666   2.335       .  S
Zr652       O653   2.325       .  S
Zr652       O654   2.344       .  S
Zr652       O666   2.339       .  S
Zr652       O664   2.363       .  S
C655        C738   1.502       .  S
C656        C757   1.472       .  S
C657        C722   1.462       .  S
C658        C933   1.508       .  S
C659       C2325   1.474       .  S
C660       C1970   1.499       .  S
C661       C1941   1.462       .  S
C662        C773   1.508       .  S
H663        O664   0.966       .  S
H665        O666   0.966       .  S
O667       Zr703   2.476       .  S
O667        C678   1.301       .  A
O668       Zr702   2.438       .  S
O668        C679   1.292       .  A
O669       Zr675   2.482       .  S
O669        C680   1.300       .  A
O670       Zr675   2.440       .  S
O670        C681   1.291       .  A
O671       Zr705   2.418       .  S
O671        C681   1.288       .  A
O672       Zr704   2.441       .  S
O672        C680   1.293       .  A
O673       Zr675   2.413       .  S
O673        C679   1.288       .  A
O674       Zr675   2.423       .  S
O674        C678   1.287       .  A
Zr675       O676   2.358       .  S
Zr675       O677   2.333       .  S
Zr675       O685   2.342       .  S
Zr675       O683   2.327       .  S
O676       Zr702   2.348       .  S
O676       Zr705   2.334       .  S
O677       Zr703   2.334       .  S
O677       Zr704   2.332       .  S
C678       C2034   1.500       .  S
C679       C1589   1.458       .  S
C680       C1621   1.516       .  S
C681       C1538   1.457       .  S
H682        O683   0.965       .  S
O683       Zr702   2.358       .  S
O683       Zr704   2.337       .  S
H684        O685   0.965       .  S
O685       Zr703   2.334       .  S
O685       Zr705   2.358       .  S
O686       Zr702   2.479       .  S
O686        C709   1.299       .  A
O687       Zr703   2.450       .  S
O687        C710   1.294       .  A
O688       Zr704   2.448       .  S
O688        C711   1.293       .  A
O689       Zr705   2.482       .  S
O689        C712   1.300       .  A
O690       Zr705   2.444       .  S
O690        C713   1.292       .  A
O691       Zr704   2.472       .  S
O691        C714   1.299       .  A
O692       Zr706   2.429       .  S
O692        C715   1.290       .  A
O693       Zr706   2.467       .  S
O693        C716   1.297       .  A
O694       Zr704   2.409       .  S
O694        C715   1.288       .  A
O695       Zr705   2.425       .  S
O695        C716   1.289       .  A
O696       Zr702   2.415       .  S
O696        C711   1.290       .  A
O697       Zr703   2.435       .  S
O697        C714   1.291       .  A
O698       Zr703   2.414       .  S
O698        C713   1.288       .  A
O699       Zr702   2.426       .  S
O699        C712   1.289       .  A
O700       Zr706   2.445       .  S
O700        C709   1.293       .  A
O701       Zr706   2.425       .  S
O701        C710   1.290       .  A
Zr702       O708   2.329       .  S
Zr702       O720   2.331       .  S
Zr703       O707   2.355       .  S
Zr703       O718   2.341       .  S
Zr704       O708   2.356       .  S
Zr704       O718   2.339       .  S
Zr705       O707   2.345       .  S
Zr705       O720   2.337       .  S
Zr706       O707   2.332       .  S
Zr706       O708   2.345       .  S
Zr706       O720   2.332       .  S
Zr706       O718   2.357       .  S
C709       C1429   1.511       .  S
C710        C837   1.469       .  S
C711       C1397   1.479       .  S
C712       C1573   1.489       .  S
C713       C2005   1.459       .  S
C714       C1909   1.497       .  S
C715       C1874   1.452       .  S
C716        C869   1.489       .  S
H717        O718   0.965       .  S
H719        O720   0.966       .  S
C721        C722   1.397       .  A
C721        C726   1.398       .  A
C721        H728   1.085       .  S
C722        C723   1.411       .  A
C723        C724   1.401       .  A
C723        C730   1.508       .  S
C724        C725   1.406       .  A
C724        H729   1.084       .  S
C725        C726   1.420       .  A
C726        C727   1.508       .  S
C727        H731   1.109       .  S
C727        H732   1.111       .  S
C727        H733   1.110       .  S
C730        H734   1.110       .  S
C730        H735   1.109       .  S
C730        H736   1.111       .  S
C737        C738   1.402       .  A
C737        C742   1.410       .  A
C737        H744   1.084       .  S
C738        C739   1.422       .  A
C739        C740   1.417       .  A
C739        C746   1.506       .  S
C740        C741   1.406       .  A
C740        H745   1.084       .  S
C741        C742   1.424       .  A
C742        C743   1.509       .  S
C743        H747   1.111       .  S
C743        H748   1.108       .  S
C743        H749   1.111       .  S
C746        H750   1.111       .  S
C746        H751   1.109       .  S
C746        H752   1.111       .  S
C753        C754   1.407       .  A
C753        C758   1.400       .  A
C753        H760   1.084       .  S
C754        C755   1.418       .  A
C755        C756   1.406       .  A
C755        C762   1.507       .  S
C756        C757   1.402       .  A
C756        H761   1.085       .  S
C757        C758   1.410       .  A
C758        C759   1.509       .  S
C759        H763   1.111       .  S
C759        H764   1.109       .  S
C759        H765   1.110       .  S
C762        H766   1.110       .  S
C762        H767   1.110       .  S
C762        H768   1.111       .  S
C769        C770   1.404       .  A
C769        C774   1.416       .  A
C769        H776   1.084       .  S
C770        C771   1.429       .  A
C771        C772   1.405       .  A
C771        C778   1.511       .  S
C772        C773   1.401       .  A
C772        H777   1.082       .  S
C773        C774   1.428       .  A
C774        C775   1.508       .  S
C775        H779   1.111       .  S
C775        H780   1.109       .  S
C775        H781   1.110       .  S
C778        H782   1.110       .  S
C778        H783   1.109       .  S
C778        H784   1.111       .  S
C785        C786   1.404       .  A
C785        C790   1.409       .  A
C785        H792   1.084       .  S
C786        C787   1.427       .  A
C787        C788   1.417       .  A
C787        C794   1.508       .  S
C788        C789   1.405       .  A
C788        H793   1.084       .  S
C789        C790   1.424       .  A
C790        C791   1.510       .  S
C791        H795   1.111       .  S
C791        H796   1.109       .  S
C791        H797   1.110       .  S
C794        H798   1.109       .  S
C794        H799   1.110       .  S
C794        H800   1.111       .  S
C801        C802   1.401       .  A
C801        C806   1.402       .  A
C801        H808   1.085       .  S
C802        C803   1.406       .  A
C803        C804   1.397       .  A
C803        C810   1.509       .  S
C804        C805   1.406       .  A
C804        H809   1.082       .  S
C805        C806   1.414       .  A
C806        C807   1.507       .  S
C807        H811   1.111       .  S
C807        H812   1.109       .  S
C807        H813   1.111       .  S
C810        H814   1.110       .  S
C810        H815   1.110       .  S
C810        H816   1.111       .  S
C817        C818   1.402       .  A
C817        C822   1.400   1_554  A
C817        H824   1.083       .  S
C818        C819   1.412       .  A
C819        C820   1.398   1_554  A
C819        C826   1.501       .  S
C820        C821   1.405       .  A
C820        H825   1.084       .  S
C821        C822   1.426       .  A
C822        C823   1.509       .  S
C823        H827   1.111       .  S
C823        H828   1.108       .  S
C823        H829   1.109       .  S
C826        H830   1.108       .  S
C826        H831   1.110       .  S
C826        H832   1.111       .  S
C833        C834   1.408       .  A
C833        C838   1.403       .  A
C833        H840   1.084       .  S
C834        C835   1.420       .  A
C835        C836   1.404       .  A
C835        C842   1.508       .  S
C836        C837   1.400       .  A
C836        H841   1.085       .  S
C837        C838   1.409       .  A
C838        C839   1.508       .  S
C839        H843   1.111       .  S
C839        H844   1.109       .  S
C839        H845   1.111       .  S
C842        H846   1.110       .  S
C842        H847   1.109       .  S
C842        H848   1.111       .  S
C849        C850   1.400       .  A
C849        C854   1.402       .  A
C849        H856   1.085       .  S
C850        C851   1.408       .  A
C851        C852   1.403       .  A
C851        C858   1.507       .  S
C852        C853   1.406       .  A
C852        H857   1.084       .  S
C853        C854   1.416       .  A
C854        C855   1.505       .  S
C855        H859   1.111       .  S
C855        H860   1.104       .  S
C855        H861   1.110       .  S
C858        H862   1.111       .  S
C858        H863   1.109       .  S
C858        H864   1.111       .  S
C865        C866   1.405       .  A
C865        C870   1.404       .  A
C865        H872   1.084       .  S
C866        C867   1.412       .  A
C867        C868   1.409       .  A
C867        C874   1.506       .  S
C868        C869   1.409       .  A
C868        H873   1.084       .  S
C869        C870   1.415       .  A
C870        C871   1.506       .  S
C871        H875   1.111       .  S
C871        H876   1.109       .  S
C871        H877   1.111       .  S
C874        H878   1.111       .  S
C874        H879   1.110       .  S
C874        H880   1.111       .  S
C881        C882   1.405       .  A
C881        C886   1.415       .  A
C881        H888   1.084       .  S
C882        C883   1.426       .  A
C883        C884   1.407       .  A
C883        C890   1.511       .  S
C884        C885   1.400       .  A
C884        H889   1.083       .  S
C885        C886   1.423       .  A
C886        C887   1.508       .  S
C887        H891   1.111       .  S
C887        H892   1.109       .  S
C887        H893   1.111       .  S
C890        H894   1.110       .  S
C890        H895   1.109       .  S
C890        H896   1.111       .  S
C897        C898   1.404       .  A
C897        C902   1.401       .  A
C897        H904   1.084       .  S
C898        C899   1.412       .  A
C899        C900   1.398       .  A
C899        C906   1.508       .  S
C900        C901   1.401       .  A
C900        H905   1.085       .  S
C901        C902   1.406       .  A
C902        C903   1.507       .  S
C903        H907   1.111       .  S
C903        H908   1.110       .  S
C903        H909   1.111       .  S
C906        H910   1.111       .  S
C906        H911   1.108       .  S
C906        H912   1.111       .  S
C913        C914   1.404       .  A
C913        C918   1.399       .  A
C913        H920   1.084       .  S
C914        C915   1.417       .  A
C915        C916   1.400       .  A
C915        C922   1.509       .  S
C916        C917   1.399       .  A
C916        H921   1.085       .  S
C917        C918   1.409       .  A
C918        C919   1.509       .  S
C919        H923   1.111       .  S
C919        H924   1.111       .  S
C919        H925   1.110       .  S
C922        H926   1.109       .  S
C922        H927   1.111       .  S
C922        H928   1.111       .  S
C929        C930   1.410       .  A
C929        C934   1.410       .  A
C929        H936   1.084       .  S
C930        C931   1.414       .  A
C931        C932   1.415       .  A
C931        C938   1.506       .  S
C932        C933   1.415       .  A
C932        H937   1.084       .  S
C933        C934   1.418       .  A
C934        C935   1.508       .  S
C935        H939   1.111       .  S
C935        H940   1.109       .  S
C935        H941   1.111       .  S
C938        H942   1.110       .  S
C938        H943   1.110       .  S
C938        H944   1.111       .  S
C945        C946   1.409       .  A
C945        C950   1.406       .  A
C945        H952   1.084       .  S
C946        C947   1.415       .  A
C947        C948   1.414       .  A
C947        C954   1.506       .  S
C948        C949   1.413       .  A
C948        H953   1.084       .  S
C949        C950   1.419       .  A
C950        C951   1.510       .  S
C951        H955   1.111       .  S
C951        H956   1.110       .  S
C951        H957   1.109       .  S
C954        H958   1.110       .  S
C954        H959   1.110       .  S
C954        H960   1.111       .  S
C961        C962   1.399       .  A
C961        C966   1.399       .  A
C961        H968   1.085       .  S
C962        C963   1.405       .  A
C963        C964   1.397       .  A
C963        C970   1.506       .  S
C964        C965   1.404       .  A
C964        H969   1.084       .  S
C965        C966   1.412       .  A
C966        C967   1.506       .  S
C967        H971   1.111       .  S
C967        H972   1.106       .  S
C967        H973   1.110       .  S
C970        H974   1.110       .  S
C970        H975   1.110       .  S
C970        H976   1.111       .  S
C977        C978   1.413       .  A
C977        C982   1.408       .  A
C977        H984   1.081       .  S
C978        C979   1.420       .  A
C979        C980   1.420       .  A
C979        C986   1.506       .  S
C980        C981   1.417       .  A
C980        H985   1.083       .  S
C981        C982   1.422       .  A
C982        C983   1.511       .  S
C983        H987   1.111       .  S
C983        H988   1.111       .  S
C983        H989   1.110       .  S
C986        H990   1.110       .  S
C986        H991   1.110       .  S
C986        H992   1.111       .  S
C993        C994   1.408       .  A
C993        C998   1.398   1_565  A
C993       H1000   1.084       .  S
C994        C995   1.421       .  A
C995        C996   1.400   1_565  A
C995       C1002   1.509       .  S
C996        C997   1.404       .  A
C996       H1001   1.084       .  S
C997        C998   1.412       .  A
C998        C999   1.506       .  S
C999       H1003   1.111       .  S
C999       H1004   1.110       .  S
C999       H1005   1.109       .  S
C1002      H1006   1.109       .  S
C1002      H1007   1.111       .  S
C1002      H1008   1.111       .  S
C1009      C1010   1.395       .  A
C1009      C1014   1.397       .  A
C1009      H1016   1.085       .  S
C1010      C1011   1.411       .  A
C1011      C1012   1.404       .  A
C1011      C1018   1.506       .  S
C1012      C1013   1.404       .  A
C1012      H1017   1.084       .  S
C1013      C1014   1.419       .  A
C1014      C1015   1.508       .  S
C1015      H1019   1.111       .  S
C1015      H1020   1.108       .  S
C1015      H1021   1.111       .  S
C1018      H1022   1.110       .  S
C1018      H1023   1.110       .  S
C1018      H1024   1.111       .  S
C1025      C1026   1.413       .  A
C1025      C1030   1.412       .  A
C1025      H1032   1.084       .  S
C1026      C1027   1.410       .  A
C1027      C1028   1.410       .  A
C1027      C1034   1.506       .  S
C1028      C1029   1.414       .  A
C1028      H1033   1.084       .  S
C1029      C1030   1.416       .  A
C1030      C1031   1.508       .  S
C1031      H1035   1.111       .  S
C1031      H1036   1.111       .  S
C1031      H1037   1.110       .  S
C1034      H1038   1.110       .  S
C1034      H1039   1.111       .  S
C1034      H1040   1.111       .  S
C1041      C1042   1.412       .  A
C1041      C1046   1.413       .  A
C1041      H1048   1.080       .  S
C1042      C1043   1.415       .  A
C1043      C1044   1.408       .  A
C1043      C1050   1.509       .  S
C1044      C1045   1.412       .  A
C1044      H1049   1.084       .  S
C1045      C1046   1.413       .  A
C1046      C1047   1.505       .  S
C1047      H1051   1.110       .  S
C1047      H1052   1.110       .  S
C1047      H1053   1.110       .  S
C1050      H1054   1.111       .  S
C1050      H1055   1.109       .  S
C1050      H1056   1.111       .  S
C1057      C1058   1.408       .  A
C1057      C1062   1.396       .  A
C1057      H1064   1.084       .  S
C1058      C1059   1.413       .  A
C1059      C1060   1.408       .  A
C1059      C1066   1.506       .  S
C1060      C1061   1.406       .  A
C1060      H1065   1.084       .  S
C1061      C1062   1.407       .  A
C1062      C1063   1.509       .  S
C1063      H1067   1.110       .  S
C1063      H1068   1.109       .  S
C1063      H1069   1.110       .  S
C1066      H1070   1.111       .  S
C1066      H1071   1.110       .  S
C1066      H1072   1.111       .  S
C1073      C1074   1.402       .  A
C1073      C1078   1.400   1_554  A
C1073      H1080   1.084       .  S
C1074      C1075   1.413       .  A
C1075      C1076   1.397   1_554  A
C1075      C1082   1.506       .  S
C1076      C1077   1.407       .  A
C1076      H1081   1.084       .  S
C1077      C1078   1.423       .  A
C1078      C1079   1.508       .  S
C1079      H1083   1.111       .  S
C1079      H1084   1.109       .  S
C1079      H1085   1.109       .  S
C1082      H1086   1.109       .  S
C1082      H1087   1.111       .  S
C1082      H1088   1.111       .  S
C1089      C1090   1.398       .  A
C1089      C1094   1.401       .  A
C1089      H1096   1.085       .  S
C1090      C1091   1.409       .  A
C1091      C1092   1.398       .  A
C1091      C1098   1.507       .  S
C1092      C1093   1.407       .  A
C1092      H1097   1.084       .  S
C1093      C1094   1.422       .  A
C1094      C1095   1.509       .  S
C1095      H1099   1.111       .  S
C1095      H1100   1.109       .  S
C1095      H1101   1.109       .  S
C1098      H1102   1.110       .  S
C1098      H1103   1.110       .  S
C1098      H1104   1.110       .  S
C1105      C1106   1.406       .  A
C1105      C1110   1.405       .  A
C1105      H1112   1.084       .  S
C1106      C1107   1.418       .  A
C1107      C1108   1.413       .  A
C1107      C1114   1.508       .  S
C1108      C1109   1.412       .  A
C1108      H1113   1.084       .  S
C1109      C1110   1.415       .  A
C1110      C1111   1.505       .  S
C1111      H1115   1.110       .  S
C1111      H1116   1.109       .  S
C1111      H1117   1.110       .  S
C1114      H1118   1.105       .  S
C1114      H1119   1.110       .  S
C1114      H1120   1.111       .  S
C1121      C1122   1.399       .  A
C1121      C1126   1.402       .  A
C1121      H1128   1.085       .  S
C1122      C1123   1.411       .  A
C1123      C1124   1.400       .  A
C1123      C1130   1.509       .  S
C1124      C1125   1.409       .  A
C1124      H1129   1.082       .  S
C1125      C1126   1.423       .  A
C1126      C1127   1.509       .  S
C1127      H1131   1.111       .  S
C1127      H1132   1.109       .  S
C1127      H1133   1.109       .  S
C1130      H1134   1.110       .  S
C1130      H1135   1.110       .  S
C1130      H1136   1.111       .  S
C1137      C1138   1.399       .  A
C1137      C1142   1.402       .  A
C1137      H1144   1.084       .  S
C1138      C1139   1.413       .  A
C1139      C1140   1.398       .  A
C1139      C1146   1.507       .  S
C1140      C1141   1.397       .  A
C1140      H1145   1.085       .  S
C1141      C1142   1.412       .  A
C1142      C1143   1.506       .  S
C1143      H1147   1.111       .  S
C1143      H1148   1.108       .  S
C1143      H1149   1.110       .  S
C1146      H1150   1.108       .  S
C1146      H1151   1.110       .  S
C1146      H1152   1.111       .  S
C1153      C1154   1.404       .  A
C1153      C1158   1.412       .  A
C1153      H1160   1.084       .  S
C1154      C1155   1.420       .  A
C1155      C1156   1.406       .  A
C1155      C1162   1.510       .  S
C1156      C1157   1.404       .  A
C1156      H1161   1.084       .  S
C1157      C1158   1.420       .  A
C1158      C1159   1.507       .  S
C1159      H1163   1.111       .  S
C1159      H1164   1.109       .  S
C1159      H1165   1.110       .  S
C1162      H1166   1.110       .  S
C1162      H1167   1.109       .  S
C1162      H1168   1.111       .  S
C1169      C1170   1.410       .  A
C1169      C1174   1.414       .  A
C1169      H1176   1.084       .  S
C1170      C1171   1.412       .  A
C1171      C1172   1.406       .  A
C1171      C1178   1.508       .  S
C1172      C1173   1.409       .  A
C1172      H1177   1.084       .  S
C1173      C1174   1.415       .  A
C1174      C1175   1.505       .  S
C1175      H1179   1.111       .  S
C1175      H1180   1.110       .  S
C1175      H1181   1.110       .  S
C1178      H1182   1.109       .  S
C1178      H1183   1.110       .  S
C1178      H1184   1.111       .  S
C1185      C1186   1.403       .  A
C1185      C1190   1.410       .  A
C1185      H1192   1.084       .  S
C1186      C1187   1.423       .  A
C1187      C1188   1.418       .  A
C1187      C1194   1.508       .  S
C1188      C1189   1.406       .  A
C1188      H1193   1.084       .  S
C1189      C1190   1.421       .  A
C1190      C1191   1.508       .  S
C1191      H1195   1.111       .  S
C1191      H1196   1.110       .  S
C1191      H1197   1.106       .  S
C1194      H1198   1.109       .  S
C1194      H1199   1.111       .  S
C1194      H1200   1.111       .  S
C1201      C1202   1.397       .  A
C1201      C1206   1.398       .  A
C1201      H1208   1.085       .  S
C1202      C1203   1.411       .  A
C1203      C1204   1.402       .  A
C1203      C1210   1.507       .  S
C1204      C1205   1.405       .  A
C1204      H1209   1.084       .  S
C1205      C1206   1.419       .  A
C1206      C1207   1.509       .  S
C1207      H1211   1.111       .  S
C1207      H1212   1.111       .  S
C1207      H1213   1.109       .  S
C1210      H1214   1.109       .  S
C1210      H1215   1.110       .  S
C1210      H1216   1.111       .  S
C1217      C1218   1.408       .  A
C1217      C1222   1.399       .  A
C1217      H1224   1.084       .  S
C1218      C1219   1.424       .  A
C1219      C1220   1.399       .  A
C1219      C1226   1.510       .  S
C1220      C1221   1.404       .  A
C1220      H1225   1.084       .  S
C1221      C1222   1.410       .  A
C1222      C1223   1.501       .  S
C1223      H1227   1.109       .  S
C1223      H1228   1.110       .  S
C1223      H1229   1.111       .  S
C1226      H1230   1.110       .  S
C1226      H1231   1.109       .  S
C1226      H1232   1.111       .  S
C1233      C1234   1.407       .  A
C1233      C1238   1.400       .  A
C1233      H1240   1.084       .  S
C1234      C1235   1.416       .  A
C1235      C1236   1.404       .  A
C1235      C1242   1.508       .  S
C1236      C1237   1.401       .  A
C1236      H1241   1.085       .  S
C1237      C1238   1.406       .  A
C1238      C1239   1.508       .  S
C1239      H1243   1.111       .  S
C1239      H1244   1.110       .  S
C1239      H1245   1.110       .  S
C1242      H1246   1.110       .  S
C1242      H1247   1.109       .  S
C1242      H1248   1.111       .  S
C1249      C1250   1.408       .  A
C1249      C1254   1.406       .  A
C1249      H1256   1.084       .  S
C1250      C1251   1.415       .  A
C1251      C1252   1.414       .  A
C1251      C1258   1.506       .  S
C1252      C1253   1.414       .  A
C1252      H1257   1.084       .  S
C1253      C1254   1.416       .  A
C1254      C1255   1.509       .  S
C1255      H1259   1.111       .  S
C1255      H1260   1.110       .  S
C1255      H1261   1.111       .  S
C1258      H1262   1.110       .  S
C1258      H1263   1.109       .  S
C1258      H1264   1.111       .  S
C1265      C1266   1.401       .  A
C1265      C1270   1.403       .  A
C1265      H1272   1.085       .  S
C1266      C1267   1.413       .  A
C1267      C1268   1.396       .  A
C1267      C1274   1.508       .  S
C1268      C1269   1.398       .  A
C1268      H1273   1.085       .  S
C1269      C1270   1.413       .  A
C1270      C1271   1.505       .  S
C1271      H1275   1.111       .  S
C1271      H1276   1.110       .  S
C1271      H1277   1.106       .  S
C1274      H1278   1.107       .  S
C1274      H1279   1.109       .  S
C1274      H1280   1.110       .  S
C1281      C1282   1.415       .  A
C1281      C1286   1.410       .  A
C1281      H1288   1.084       .  S
C1282      C1283   1.416       .  A
C1283      C1284   1.416       .  A
C1283      C1290   1.505       .  S
C1284      C1285   1.414       .  A
C1284      H1289   1.084       .  S
C1285      C1286   1.416       .  A
C1286      C1287   1.509       .  S
C1287      H1291   1.111       .  S
C1287      H1292   1.111       .  S
C1287      H1293   1.109       .  S
C1290      H1294   1.110       .  S
C1290      H1295   1.110       .  S
C1290      H1296   1.111       .  S
C1297      C1298   1.410       .  A
C1297      C1302   1.410       .  A
C1297      H1304   1.085       .  S
C1298      C1299   1.413       .  A
C1299      C1300   1.405       .  A
C1299      C1306   1.509       .  S
C1300      C1301   1.408       .  A
C1300      H1305   1.084       .  S
C1301      C1302   1.415       .  A
C1302      C1303   1.507       .  S
C1303      H1307   1.110       .  S
C1303      H1308   1.106       .  S
C1303      H1309   1.111       .  S
C1306      H1310   1.111       .  S
C1306      H1311   1.109       .  S
C1306      H1312   1.111       .  S
C1313      C1314   1.399       .  A
C1313      C1318   1.398       .  A
C1313      H1320   1.085       .  S
C1314      C1315   1.407       .  A
C1315      C1316   1.401       .  A
C1315      C1322   1.507       .  S
C1316      C1317   1.404       .  A
C1316      H1321   1.084       .  S
C1317      C1318   1.412       .  A
C1318      C1319   1.507       .  S
C1319      H1323   1.111       .  S
C1319      H1324   1.106       .  S
C1319      H1325   1.110       .  S
C1322      H1326   1.111       .  S
C1322      H1327   1.110       .  S
C1322      H1328   1.111       .  S
C1329      C1330   1.410       .  A
C1329      C1334   1.411       .  A
C1329      H1336   1.084       .  S
C1330      C1331   1.416       .  A
C1331      C1332   1.407       .  A
C1331      C1338   1.509       .  S
C1332      C1333   1.408       .  A
C1332      H1337   1.084       .  S
C1333      C1334   1.413       .  A
C1334      C1335   1.506       .  S
C1335      H1339   1.111       .  S
C1335      H1340   1.110       .  S
C1335      H1341   1.110       .  S
C1338      H1342   1.111       .  S
C1338      H1343   1.111       .  S
C1338      H1344   1.109       .  S
C1345      C1346   1.408       .  A
C1345      C1350   1.398       .  A
C1345      H1352   1.084       .  S
C1346      C1347   1.416       .  A
C1347      C1348   1.401       .  A
C1347      C1354   1.504       .  S
C1348      C1349   1.399       .  A
C1348      H1353   1.085       .  S
C1349      C1350   1.406       .  A
C1350      C1351   1.508       .  S
C1351      H1355   1.111       .  S
C1351      H1356   1.110       .  S
C1351      H1357   1.110       .  S
C1354      H1358   1.104       .  S
C1354      H1359   1.110       .  S
C1354      H1360   1.111       .  S
C1361      C1362   1.406       .  A
C1361      C1366   1.399   1_545  A
C1361      H1368   1.084       .  S
C1362      C1363   1.416       .  A
C1363      C1364   1.398   1_545  A
C1363      C1370   1.506       .  S
C1364      C1365   1.405       .  A
C1364      H1369   1.084       .  S
C1365      C1366   1.415       .  A
C1366      C1367   1.506       .  S
C1367      H1371   1.111       .  S
C1367      H1372   1.109       .  S
C1367      H1373   1.110       .  S
C1370      H1374   1.109       .  S
C1370      H1375   1.111       .  S
C1370      H1376   1.110       .  S
C1377      C1378   1.405       .  A
C1377      C1382   1.401       .  A
C1377      H1384   1.083       .  S
C1378      C1379   1.422       .  A
C1379      C1380   1.402       .  A
C1379      C1386   1.510       .  S
C1380      C1381   1.400       .  A
C1380      H1385   1.084       .  S
C1381      C1382   1.412       .  A
C1382      C1383   1.504       .  S
C1383      H1387   1.110       .  S
C1383      H1388   1.109       .  S
C1383      H1389   1.110       .  S
C1386      H1390   1.109       .  S
C1386      H1391   1.111       .  S
C1386      H1392   1.111       .  S
C1393      C1394   1.403       .  A
C1393      C1398   1.406       .  A
C1393      H1400   1.084       .  S
C1394      C1395   1.405       .  A
C1395      C1396   1.394       .  A
C1395      C1402   1.509       .  S
C1396      C1397   1.408       .  A
C1396      H1401   1.084       .  S
C1397      C1398   1.416       .  A
C1398      C1399   1.507       .  S
C1399      H1403   1.111       .  S
C1399      H1404   1.110       .  S
C1399      H1405   1.110       .  S
C1402      H1406   1.109       .  S
C1402      H1407   1.111       .  S
C1402      H1408   1.111       .  S
C1409      C1410   1.409       .  A
C1409      C1414   1.410       .  A
C1409      H1416   1.084       .  S
C1410      C1411   1.415       .  A
C1411      C1412   1.416       .  A
C1411      C1418   1.506       .  S
C1412      C1413   1.414       .  A
C1412      H1417   1.084       .  S
C1413      C1414   1.418       .  A
C1414      C1415   1.509       .  S
C1415      H1419   1.111       .  S
C1415      H1420   1.111       .  S
C1415      H1421   1.109       .  S
C1418      H1422   1.110       .  S
C1418      H1423   1.111       .  S
C1418      H1424   1.111       .  S
C1425      C1426   1.413       .  A
C1425      C1430   1.409       .  A
C1425      H1432   1.083       .  S
C1426      C1427   1.417       .  A
C1427      C1428   1.417       .  A
C1427      C1434   1.506       .  S
C1428      C1429   1.414       .  A
C1428      H1433   1.080       .  S
C1429      C1430   1.417       .  A
C1430      C1431   1.509       .  S
C1431      H1435   1.111       .  S
C1431      H1436   1.111       .  S
C1431      H1437   1.109       .  S
C1434      H1438   1.110       .  S
C1434      H1439   1.110       .  S
C1434      H1440   1.111       .  S
C1441      C1442   1.413       .  A
C1441      C1446   1.416       .  A
C1441      H1448   1.080       .  S
C1442      C1443   1.417       .  A
C1443      C1444   1.409       .  A
C1443      C1450   1.510       .  S
C1444      C1445   1.412       .  A
C1444      H1449   1.083       .  S
C1445      C1446   1.418       .  A
C1446      C1447   1.506       .  S
C1447      H1451   1.111       .  S
C1447      H1452   1.110       .  S
C1447      H1453   1.110       .  S
C1450      H1454   1.109       .  S
C1450      H1455   1.110       .  S
C1450      H1456   1.111       .  S
C1457      C1458   1.395       .  A
C1457      C1462   1.394       .  A
C1457      H1464   1.085       .  S
C1458      C1459   1.410       .  A
C1459      C1460   1.400       .  A
C1459      C1466   1.505       .  S
C1460      C1461   1.398       .  A
C1460      H1465   1.084       .  S
C1461      C1462   1.411       .  A
C1462      C1463   1.506       .  S
C1463      H1467   1.111       .  S
C1463      H1468   1.107       .  S
C1463      H1469   1.110       .  S
C1466      H1470   1.108       .  S
C1466      H1471   1.110       .  S
C1466      H1472   1.111       .  S
C1473      C1474   1.404       .  A
C1473      C1478   1.408       .  A
C1473      H1480   1.084       .  S
C1474      C1475   1.429       .  A
C1475      C1476   1.416       .  A
C1475      C1482   1.505       .  S
C1476      C1477   1.403       .  A
C1476      H1481   1.084       .  S
C1477      C1478   1.426       .  A
C1478      C1479   1.511       .  S
C1479      H1483   1.111       .  S
C1479      H1484   1.109       .  S
C1479      H1485   1.110       .  S
C1482      H1486   1.105       .  S
C1482      H1487   1.110       .  S
C1482      H1488   1.111       .  S
C1489      C1490   1.409       .  A
C1489      C1494   1.402       .  A
C1489      H1496   1.083       .  S
C1490      C1491   1.419       .  A
C1491      C1492   1.401       .  A
C1491      C1498   1.507       .  S
C1492      C1493   1.398       .  A
C1492      H1497   1.085       .  S
C1493      C1494   1.409       .  A
C1494      C1495   1.508       .  S
C1495      H1499   1.111       .  S
C1495      H1500   1.110       .  S
C1495      H1501   1.110       .  S
C1498      H1502   1.109       .  S
C1498      H1503   1.110       .  S
C1498      H1504   1.111       .  S
C1505      C1506   1.404       .  A
C1505      C1510   1.399       .  A
C1505      H1512   1.084       .  S
C1506      C1507   1.413       .  A
C1507      C1508   1.398       .  A
C1507      C1514   1.505       .  S
C1508      C1509   1.407       .  A
C1508      H1513   1.083       .  S
C1509      C1510   1.420       .  A
C1510      C1511   1.507       .  S
C1511      H1515   1.111       .  S
C1511      H1516   1.109       .  S
C1511      H1517   1.110       .  S
C1514      H1518   1.111       .  S
C1514      H1519   1.109   1_455  S
C1514      H1520   1.111       .  S
C1521      C1522   1.409       .  A
C1521      C1526   1.393       .  A
C1521      H1528   1.084       .  S
C1522      C1523   1.419       .  A
C1523      C1524   1.405       .  A
C1523      C1530   1.507       .  S
C1524      C1525   1.403       .  A
C1524      H1529   1.084       .  S
C1525      C1526   1.408       .  A
C1526      C1527   1.510       .  S
C1527      H1531   1.110       .  S
C1527      H1532   1.108       .  S
C1527      H1533   1.110       .  S
C1530      H1534   1.109       .  S
C1530      H1535   1.110       .  S
C1530      H1536   1.111       .  S
C1537      C1538   1.401       .  A
C1537      C1542   1.400       .  A
C1537      H1544   1.085       .  S
C1538      C1539   1.405       .  A
C1539      C1540   1.399       .  A
C1539      C1546   1.507       .  S
C1540      C1541   1.406       .  A
C1540      H1545   1.084       .  S
C1541      C1542   1.410       .  A
C1542      C1543   1.506       .  S
C1543      H1547   1.111       .  S
C1543      H1548   1.111       .  S
C1543      H1549   1.107       .  S
C1546      H1550   1.110       .  S
C1546      H1551   1.110       .  S
C1546      H1552   1.111       .  S
C1553      C1554   1.405       .  A
C1553      C1558   1.401       .  A
C1553      H1560   1.084       .  S
C1554      C1555   1.413       .  A
C1555      C1556   1.410       .  A
C1555      C1562   1.505       .  S
C1556      C1557   1.410       .  A
C1556      H1561   1.082       .  S
C1557      C1558   1.417       .  A
C1558      C1559   1.507       .  S
C1559      H1563   1.110       .  S
C1559      H1564   1.109       .  S
C1559      H1565   1.111       .  S
C1562      H1566   1.108       .  S
C1562      H1567   1.111       .  S
C1562      H1568   1.111       .  S
C1569      C1570   1.404       .  A
C1569      C1574   1.413       .  A
C1569      H1576   1.084       .  S
C1570      C1571   1.422       .  A
C1571      C1572   1.406       .  A
C1571      C1578   1.509       .  S
C1572      C1573   1.399       .  A
C1572      H1577   1.083       .  S
C1573      C1574   1.419       .  A
C1574      C1575   1.508       .  S
C1575      H1579   1.111       .  S
C1575      H1580   1.111       .  S
C1575      H1581   1.109       .  S
C1578      H1582   1.109       .  S
C1578      H1583   1.110       .  S
C1578      H1584   1.111       .  S
C1585      C1586   1.406       .  A
C1585      C1590   1.400       .  A
C1585      H1592   1.084       .  S
C1586      C1587   1.419       .  A
C1587      C1588   1.398       .  A
C1587      C1594   1.509       .  S
C1588      C1589   1.398       .  A
C1588      H1593   1.085       .  S
C1589      C1590   1.408       .  A
C1590      C1591   1.508       .  S
C1591      H1595   1.111       .  S
C1591      H1596   1.110       .  S
C1591      H1597   1.110       .  S
C1594      H1598   1.108       .  S
C1594      H1599   1.111       .  S
C1594      H1600   1.111       .  S
C1601      C1602   1.405       .  A
C1601      C1606   1.399       .  A
C1601      H1608   1.084   1_655  S
C1602      C1603   1.413       .  A
C1603      C1604   1.400       .  A
C1603      C1610   1.507       .  S
C1604      C1605   1.400       .  A
C1604      H1609   1.084       .  S
C1605      C1606   1.406       .  A
C1606      C1607   1.506       .  S
C1607      H1611   1.111       .  S
C1607      H1612   1.109       .  S
C1607      H1613   1.110       .  S
C1610      H1614   1.110       .  S
C1610      H1615   1.106       .  S
C1610      H1616   1.111       .  S
C1617      C1618   1.413       .  A
C1617      C1622   1.411       .  A
C1617      H1624   1.084       .  S
C1618      C1619   1.416       .  A
C1619      C1620   1.416       .  A
C1619      C1626   1.505       .  S
C1620      C1621   1.416       .  A
C1620      H1625   1.083       .  S
C1621      C1622   1.421       .  A
C1622      C1623   1.509       .  S
C1623      H1627   1.111       .  S
C1623      H1628   1.111       .  S
C1623      H1629   1.110       .  S
C1626      H1630   1.109       .  S
C1626      H1631   1.110       .  S
C1626      H1632   1.111       .  S
C1633      C1634   1.401       .  A
C1633      C1638   1.405       .  A
C1633      H1640   1.083       .  S
C1634      C1635   1.419       .  A
C1635      C1636   1.413       .  A
C1635      C1642   1.508       .  S
C1636      C1637   1.404       .  A
C1636      H1641   1.084       .  S
C1637      C1638   1.420       .  A
C1638      C1639   1.509   1_655  S
C1639      H1643   1.110   1_455  S
C1639      H1644   1.110       .  S
C1639      H1645   1.108       .  S
C1642      H1646   1.110       .  S
C1642      H1647   1.109       .  S
C1642      H1648   1.111       .  S
C1649      C1650   1.397       .  A
C1649      C1654   1.396       .  A
C1649      H1656   1.085       .  S
C1650      C1651   1.411       .  A
C1651      C1652   1.403       .  A
C1651      C1658   1.506       .  S
C1652      C1653   1.401       .  A
C1652      H1657   1.084       .  S
C1653      C1654   1.413       .  A
C1654      C1655   1.510       .  S
C1655      H1659   1.110       .  S
C1655      H1660   1.108       .  S
C1655      H1661   1.110       .  S
C1658      H1662   1.109   1_655  S
C1658      H1663   1.111       .  S
C1658      H1664   1.110       .  S
C1665      C1666   1.400       .  A
C1665      C1670   1.403       .  A
C1665      H1672   1.080       .  S
C1666      C1667   1.407       .  A
C1667      C1668   1.395       .  A
C1667      C1674   1.507       .  S
C1668      C1669   1.405       .  A
C1668      H1673   1.084       .  S
C1669      C1670   1.415       .  A
C1670      C1671   1.507       .  S
C1671      H1675   1.111       .  S
C1671      H1676   1.110       .  S
C1671      H1677   1.109       .  S
C1674      H1678   1.107       .  S
C1674      H1679   1.110       .  S
C1674      H1680   1.111       .  S
C1681      C1682   1.404       .  A
C1681      C1686   1.414       .  A
C1681      H1688   1.084       .  S
C1682      C1683   1.419       .  A
C1683      C1684   1.409       .  A
C1683      C1690   1.508   1_655  S
C1684      C1685   1.403       .  A
C1684      H1689   1.084       .  S
C1685      C1686   1.423       .  A
C1686      C1687   1.509       .  S
C1687      H1691   1.111       .  S
C1687      H1692   1.111       .  S
C1687      H1693   1.109       .  S
C1690      H1694   1.108       .  S
C1690      H1695   1.111       .  S
C1690      H1696   1.111       .  S
C1697      C1698   1.410       .  A
C1697      C1702   1.406       .  A
C1697      H1704   1.084       .  S
C1698      C1699   1.417       .  A
C1699      C1700   1.414       .  A
C1699      C1706   1.505       .  S
C1700      C1701   1.410       .  A
C1700      H1705   1.084       .  S
C1701      C1702   1.415       .  A
C1702      C1703   1.506       .  S
C1703      H1707   1.111       .  S
C1703      H1708   1.108       .  S
C1703      H1709   1.109       .  S
C1706      H1710   1.109       .  S
C1706      H1711   1.110       .  S
C1706      H1712   1.110       .  S
C1713      C1714   1.401       .  A
C1713      C1718   1.398       .  A
C1713      H1720   1.084       .  S
C1714      C1715   1.410       .  A
C1715      C1716   1.397       .  A
C1715      C1722   1.505   1_455  S
C1716      C1717   1.406       .  A
C1716      H1721   1.084       .  S
C1717      C1718   1.424       .  A
C1718      C1719   1.510       .  S
C1719      H1723   1.111       .  S
C1719      H1724   1.109       .  S
C1719      H1725   1.110       .  S
C1722      H1726   1.110       .  S
C1722      H1727   1.110   1_655  S
C1722      H1728   1.110       .  S
C1729      C1730   1.402       .  A
C1729      C1734   1.404       .  A
C1729      H1736   1.084       .  S
C1730      C1731   1.406       .  A
C1731      C1732   1.394       .  A
C1731      C1738   1.509       .  S
C1732      C1733   1.408       .  A
C1732      H1737   1.084       .  S
C1733      C1734   1.417       .  A
C1734      C1735   1.507       .  S
C1735      H1739   1.111       .  S
C1735      H1740   1.110       .  S
C1735      H1741   1.108       .  S
C1738      H1742   1.110       .  S
C1738      H1743   1.109       .  S
C1738      H1744   1.111       .  S
C1745      C1746   1.392       .  A
C1745      C1750   1.392       .  A
C1745      H1752   1.085   1_655  S
C1746      C1747   1.413       .  A
C1747      C1748   1.408       .  A
C1747      C1754   1.506       .  S
C1748      C1749   1.406       .  A
C1748      H1753   1.082       .  S
C1749      C1750   1.425       .  A
C1750      C1751   1.510       .  S
C1751      H1755   1.111       .  S
C1751      H1756   1.107       .  S
C1751      H1757   1.109       .  S
C1754      H1758   1.109       .  S
C1754      H1759   1.111   1_655  S
C1754      H1760   1.111       .  S
C1761      C1762   1.410       .  A
C1761      C1766   1.408       .  A
C1761      H1768   1.084       .  S
C1762      C1763   1.415       .  A
C1763      C1764   1.412       .  A
C1763      C1770   1.506       .  S
C1764      C1765   1.411       .  A
C1764      H1769   1.084       .  S
C1765      C1766   1.416       .  A
C1766      C1767   1.509       .  S
C1767      H1771   1.111       .  S
C1767      H1772   1.111       .  S
C1767      H1773   1.109       .  S
C1770      H1774   1.110       .  S
C1770      H1775   1.110       .  S
C1770      H1776   1.111       .  S
C1777      C1778   1.402       .  A
C1777      C1782   1.410       .  A
C1777      H1784   1.084       .  S
C1778      C1779   1.418       .  A
C1779      C1780   1.409       .  A
C1779      C1786   1.507   1_655  S
C1780      C1781   1.403       .  A
C1780      H1785   1.084       .  S
C1781      C1782   1.418       .  A
C1782      C1783   1.508       .  S
C1783      H1787   1.111       .  S
C1783      H1788   1.109       .  S
C1783      H1789   1.111       .  S
C1786      H1790   1.110       .  S
C1786      H1791   1.109       .  S
C1786      H1792   1.111   1_455  S
C1793      C1794   1.406       .  A
C1793      C1798   1.400       .  A
C1793      H1800   1.084       .  S
C1794      C1795   1.417       .  A
C1795      C1796   1.400       .  A
C1795      C1802   1.507   1_455  S
C1796      C1797   1.404       .  A
C1796      H1801   1.083       .  S
C1797      C1798   1.420       .  A
C1798      C1799   1.509       .  S
C1799      H1803   1.111       .  S
C1799      H1804   1.109       .  S
C1799      H1805   1.110       .  S
C1802      H1806   1.108       .  S
C1802      H1807   1.110       .  S
C1802      H1808   1.111       .  S
C1809      C1810   1.401       .  A
C1809      C1814   1.400       .  A
C1809      H1816   1.085       .  S
C1810      C1811   1.406       .  A
C1811      C1812   1.400       .  A
C1811      C1818   1.507       .  S
C1812      C1813   1.404       .  A
C1812      H1817   1.084       .  S
C1813      C1814   1.412       .  A
C1814      C1815   1.507       .  S
C1815      H1819   1.111       .  S
C1815      H1820   1.110       .  S
C1815      H1821   1.108       .  S
C1818      H1822   1.110       .  S
C1818      H1823   1.111       .  S
C1818      H1824   1.111       .  S
C1825      C1826   1.406       .  A
C1825      C1830   1.396       .  A
C1825      H1832   1.084   1_655  S
C1826      C1827   1.421       .  A
C1827      C1828   1.405       .  A
C1827      C1834   1.507       .  S
C1828      C1829   1.401       .  A
C1828      H1833   1.085       .  S
C1829      C1830   1.411       .  A
C1830      C1831   1.508       .  S
C1831      H1835   1.110       .  S
C1831      H1836   1.111       .  S
C1831      H1837   1.107       .  S
C1834      H1838   1.109       .  S
C1834      H1839   1.110       .  S
C1834      H1840   1.111       .  S
C1841      C1842   1.406       .  A
C1841      C1846   1.414       .  A
C1841      H1848   1.084       .  S
C1842      C1843   1.417       .  A
C1843      C1844   1.407       .  A
C1843      C1850   1.508       .  S
C1844      C1845   1.401       .  A
C1844      H1849   1.082       .  S
C1845      C1846   1.415       .  A
C1846      C1847   1.507       .  S
C1847      H1851   1.111       .  S
C1847      H1852   1.110       .  S
C1847      H1853   1.107       .  S
C1850      H1854   1.110       .  S
C1850      H1855   1.109       .  S
C1850      H1856   1.110       .  S
C1857      C1858   1.400       .  A
C1857      C1862   1.409       .  A
C1857      H1864   1.082       .  S
C1858      C1859   1.422       .  A
C1859      C1860   1.418       .  A
C1859      C1866   1.507       .  S
C1860      C1861   1.407       .  A
C1860      H1865   1.084       .  S
C1861      C1862   1.425       .  A
C1862      C1863   1.508   1_655  S
C1863      H1867   1.111       .  S
C1863      H1868   1.111       .  S
C1863      H1869   1.108       .  S
C1866      H1870   1.109       .  S
C1866      H1871   1.110       .  S
C1866      H1872   1.111       .  S
C1873      C1874   1.401       .  A
C1873      C1878   1.393       .  A
C1873      H1880   1.085       .  S
C1874      C1875   1.408       .  A
C1875      C1876   1.399       .  A
C1875      C1882   1.507       .  S
C1876      C1877   1.402       .  A
C1876      H1881   1.084       .  S
C1877      C1878   1.405       .  A
C1878      C1879   1.506       .  S
C1879      H1883   1.111       .  S
C1879      H1884   1.110       .  S
C1879      H1885   1.110       .  S
C1882      H1886   1.110       .  S
C1882      H1887   1.107       .  S
C1882      H1888   1.111       .  S
C1889      C1890   1.409       .  A
C1889      C1894   1.398       .  A
C1889      H1896   1.083       .  S
C1890      C1891   1.419       .  A
C1891      C1892   1.404       .  A
C1891      C1898   1.507       .  S
C1892      C1893   1.401       .  A
C1892      H1897   1.078       .  S
C1893      C1894   1.414       .  A
C1894      C1895   1.512       .  S
C1895      H1899   1.111       .  S
C1895      H1900   1.109       .  S
C1895      H1901   1.107       .  S
C1898      H1902   1.110       .  S
C1898      H1903   1.110       .  S
C1898      H1904   1.111       .  S
C1905      C1906   1.410       .  A
C1905      C1910   1.407       .  A
C1905      H1912   1.084       .  S
C1906      C1907   1.417       .  A
C1907      C1908   1.414       .  A
C1907      C1914   1.504       .  S
C1908      C1909   1.409       .  A
C1908      H1913   1.084       .  S
C1909      C1910   1.414       .  A
C1910      C1911   1.507       .  S
C1911      H1915   1.111       .  S
C1911      H1916   1.109       .  S
C1911      H1917   1.109       .  S
C1914      H1918   1.110       .  S
C1914      H1919   1.108       .  S
C1914      H1920   1.111       .  S
C1921      C1922   1.404       .  A
C1921      C1926   1.414       .  A
C1921      H1928   1.084       .  S
C1922      C1923   1.421       .  A
C1923      C1924   1.407       .  A
C1923      C1930   1.510       .  S
C1924      C1925   1.405       .  A
C1924      H1929   1.084       .  S
C1925      C1926   1.423       .  A
C1926      C1927   1.508       .  S
C1927      H1931   1.111       .  S
C1927      H1932   1.110       .  S
C1927      H1933   1.110       .  S
C1930      H1934   1.110       .  S
C1930      H1935   1.109       .  S
C1930      H1936   1.111       .  S
C1937      C1938   1.406       .  A
C1937      C1942   1.398       .  A
C1937      H1944   1.084       .  S
C1938      C1939   1.416       .  A
C1939      C1940   1.401       .  A
C1939      C1946   1.503       .  S
C1940      C1941   1.399       .  A
C1940      H1945   1.085       .  S
C1941      C1942   1.408       .  A
C1942      C1943   1.507       .  S
C1943      H1947   1.111       .  S
C1943      H1948   1.110       .  S
C1943      H1949   1.109       .  S
C1946      H1950   1.103       .  S
C1946      H1951   1.110       .  S
C1946      H1952   1.111       .  S
C1953      C1954   1.401       .  A
C1953      C1958   1.405       .  A
C1953      H1960   1.085       .  S
C1954      C1955   1.409       .  A
C1955      C1956   1.400       .  A
C1955      C1962   1.509       .  S
C1956      C1957   1.409       .  A
C1956      H1961   1.084       .  S
C1957      C1958   1.419       .  A
C1958      C1959   1.507       .  S
C1959      H1963   1.111       .  S
C1959      H1964   1.110       .  S
C1959      H1965   1.108       .  S
C1962      H1966   1.109       .  S
C1962      H1967   1.111       .  S
C1962      H1968   1.111       .  S
C1969      C1970   1.400       .  A
C1969      C1974   1.406       .  A
C1969      H1976   1.082       .  S
C1970      C1971   1.424       .  A
C1971      C1972   1.414       .  A
C1971      C1978   1.508       .  S
C1972      C1973   1.404       .  A
C1972      H1977   1.084       .  S
C1973      C1974   1.426       .  A
C1974      C1975   1.511       .  S
C1975      H1979   1.111       .  S
C1975      H1980   1.110       .  S
C1975      H1981   1.109   1_545  S
C1978      H1982   1.109       .  S
C1978      H1983   1.110       .  S
C1978      H1984   1.111       .  S
C1985      C1986   1.409       .  A
C1985      C1990   1.408       .  A
C1985      H1992   1.084       .  S
C1986      C1987   1.413       .  A
C1987      C1988   1.414       .  A
C1987      C1994   1.506       .  S
C1988      C1989   1.414       .  A
C1988      H1993   1.084       .  S
C1989      C1990   1.416       .  A
C1990      C1991   1.508       .  S
C1991      H1995   1.111       .  S
C1991      H1996   1.110       .  S
C1991      H1997   1.111       .  S
C1994      H1998   1.111       .  S
C1994      H1999   1.110       .  S
C1994      H2000   1.111       .  S
C2001      C2002   1.405       .  A
C2001      C2006   1.401       .  A
C2001      H2008   1.084       .  S
C2002      C2003   1.413       .  A
C2003      C2004   1.400       .  A
C2003      C2010   1.507       .  S
C2004      C2005   1.400       .  A
C2004      H2009   1.085       .  S
C2005      C2006   1.408       .  A
C2006      C2007   1.508       .  S
C2007      H2011   1.111       .  S
C2007      H2012   1.111       .  S
C2007      H2013   1.110       .  S
C2010      H2014   1.105       .  S
C2010      H2015   1.110       .  S
C2010      H2016   1.111       .  S
C2017      C2018   1.408       .  A
C2017      C2022   1.399       .  A
C2017      H2024   1.084       .  S
C2018      C2019   1.416       .  A
C2019      C2020   1.403       .  A
C2019      C2026   1.507       .  S
C2020      C2021   1.401       .  A
C2020      H2025   1.085       .  S
C2021      C2022   1.407       .  A
C2022      C2023   1.509       .  S
C2023      H2027   1.111       .  S
C2023      H2028   1.110       .  S
C2023      H2029   1.111       .  S
C2026      H2030   1.110       .  S
C2026      H2031   1.109       .  S
C2026      H2032   1.111       .  S
C2033      C2034   1.401       .  A
C2033      C2038   1.404       .  A
C2033      H2040   1.084       .  S
C2034      C2035   1.426       .  A
C2035      C2036   1.413       .  A
C2035      C2042   1.508       .  S
C2036      C2037   1.403       .  A
C2036      H2041   1.084       .  S
C2037      C2038   1.424       .  A
C2038      C2039   1.509       .  S
C2039      H2043   1.111       .  S
C2039      H2044   1.108       .  S
C2039      H2045   1.110       .  S
C2042      H2046   1.109       .  S
C2042      H2047   1.110       .  S
C2042      H2048   1.111       .  S
C2049      C2050   1.408       .  A
C2049      C2054   1.406       .  A
C2049      H2056   1.083       .  S
C2050      C2051   1.413       .  A
C2051      C2052   1.412       .  A
C2051      C2058   1.506       .  S
C2052      C2053   1.411       .  A
C2052      H2057   1.084       .  S
C2053      C2054   1.415       .  A
C2054      C2055   1.509       .  S
C2055      H2059   1.111       .  S
C2055      H2060   1.109       .  S
C2055      H2061   1.111       .  S
C2058      H2062   1.110       .  S
C2058      H2063   1.110       .  S
C2058      H2064   1.111       .  S
C2065      C2066   1.396       .  A
C2065      C2070   1.399       .  A
C2065      H2072   1.084       .  S
C2066      C2067   1.410       .  A
C2067      C2068   1.399       .  A
C2067      C2074   1.507       .  S
C2068      C2069   1.400       .  A
C2068      H2073   1.084       .  S
C2069      C2070   1.413       .  A
C2070      C2071   1.504       .  S
C2071      H2075   1.111       .  S
C2071      H2076   1.102       .  S
C2071      H2077   1.111       .  S
C2074      H2078   1.108       .  S
C2074      H2079   1.110       .  S
C2074      H2080   1.111       .  S
C2081      C2082   1.408       .  A
C2081      C2086   1.402       .  A
C2081      H2088   1.084       .  S
C2082      C2083   1.419       .  A
C2083      C2084   1.400       .  A
C2083      C2090   1.504       .  S
C2084      C2085   1.396       .  A
C2084      H2089   1.082       .  S
C2085      C2086   1.408       .  A
C2086      C2087   1.509       .  S
C2087      H2091   1.110       .  S
C2087      H2092   1.110       .  S
C2087      H2093   1.109       .  S
C2090      H2094   1.110       .  S
C2090      H2095   1.109       .  S
C2090      H2096   1.111       .  S
C2097      C2098   1.412       .  A
C2097      C2102   1.408       .  A
C2097      H2104   1.084       .  S
C2098      C2099   1.416       .  A
C2099      C2100   1.414       .  A
C2099      C2106   1.506   1_655  S
C2100      C2101   1.411       .  A
C2100      H2105   1.084       .  S
C2101      C2102   1.417       .  A
C2102      C2103   1.510       .  S
C2103      H2107   1.111       .  S
C2103      H2108   1.109       .  S
C2103      H2109   1.110       .  S
C2106      H2110   1.110       .  S
C2106      H2111   1.109       .  S
C2106      H2112   1.111       .  S
C2113      C2114   1.411       .  A
C2113      C2118   1.401       .  A
C2113      H2120   1.083       .  S
C2114      C2115   1.420       .  A
C2115      C2116   1.416       .  A
C2115      C2122   1.507   1_655  S
C2116      C2117   1.414       .  A
C2116      H2121   1.084       .  S
C2117      C2118   1.416       .  A
C2118      C2119   1.509       .  S
C2119      H2123   1.111       .  S
C2119      H2124   1.108       .  S
C2119      H2125   1.110       .  S
C2122      H2126   1.110       .  S
C2122      H2127   1.110       .  S
C2122      H2128   1.111       .  S
C2129      C2130   1.405   1_545  A
C2129      C2134   1.398       .  A
C2129      H2136   1.083       .  S
C2130      C2131   1.424       .  A
C2131      C2132   1.399       .  A
C2131      C2138   1.507       .  S
C2132      C2133   1.402       .  A
C2132      H2137   1.083       .  S
C2133      C2134   1.412   1_565  A
C2134      C2135   1.500       .  S
C2135      H2139   1.111       .  S
C2135      H2140   1.108       .  S
C2135      H2141   1.110       .  S
C2138      H2142   1.108       .  S
C2138      H2143   1.109       .  S
C2138      H2144   1.111       .  S
C2145      C2146   1.408       .  A
C2145      C2150   1.401       .  A
C2145      H2152   1.084       .  S
C2146      C2147   1.417       .  A
C2147      C2148   1.404       .  A
C2147      C2154   1.507       .  S
C2148      C2149   1.401       .  A
C2148      H2153   1.085       .  S
C2149      C2150   1.409       .  A
C2150      C2151   1.508       .  S
C2151      H2155   1.111       .  S
C2151      H2156   1.108       .  S
C2151      H2157   1.110       .  S
C2154      H2158   1.110       .  S
C2154      H2159   1.109       .  S
C2154      H2160   1.111       .  S
C2161      C2162   1.399       .  A
C2161      C2166   1.399       .  A
C2161      H2168   1.085       .  S
C2162      C2163   1.406       .  A
C2163      C2164   1.397       .  A
C2163      C2170   1.508       .  S
C2164      C2165   1.404       .  A
C2164      H2169   1.084       .  S
C2165      C2166   1.414       .  A
C2166      C2167   1.506       .  S
C2167      H2171   1.111       .  S
C2167      H2172   1.104       .  S
C2167      H2173   1.110       .  S
C2170      H2174   1.110       .  S
C2170      H2175   1.110       .  S
C2170      H2176   1.111       .  S
C2177      C2178   1.413       .  A
C2177      C2182   1.403       .  A
C2177      H2184   1.083       .  S
C2178      C2179   1.415       .  A
C2179      C2180   1.415       .  A
C2179      C2186   1.505       .  S
C2180      C2181   1.417       .  A
C2180      H2185   1.083       .  S
C2181      C2182   1.419       .  A
C2182      C2183   1.512       .  S
C2183      H2187   1.111       .  S
C2183      H2188   1.109       .  S
C2183      H2189   1.107       .  S
C2186      H2190   1.110       .  S
C2186      H2191   1.109       .  S
C2186      H2192   1.111       .  S
C2193      C2194   1.411       .  A
C2193      C2198   1.406       .  A
C2193      H2200   1.084       .  S
C2194      C2195   1.413       .  A
C2195      C2196   1.414       .  A
C2195      C2202   1.506       .  S
C2196      C2197   1.415       .  A
C2196      H2201   1.082       .  S
C2197      C2198   1.419       .  A
C2198      C2199   1.510       .  S
C2199      H2203   1.111       .  S
C2199      H2204   1.111       .  S
C2199      H2205   1.110       .  S
C2202      H2206   1.110       .  S
C2202      H2207   1.110       .  S
C2202      H2208   1.111       .  S
C2209      C2210   1.404   1_545  A
C2209      C2214   1.402       .  A
C2209      H2216   1.084       .  S
C2210      C2211   1.410       .  A
C2211      C2212   1.398       .  A
C2211      C2218   1.500       .  S
C2212      C2213   1.405       .  A
C2212      H2217   1.083       .  S
C2213      C2214   1.425   1_565  A
C2214      C2215   1.510       .  S
C2215      H2219   1.111       .  S
C2215      H2220   1.111       .  S
C2215      H2221   1.109       .  S
C2218      H2222   1.109       .  S
C2218      H2223   1.110       .  S
C2218      H2224   1.111       .  S
C2225      C2226   1.407       .  A
C2225      C2230   1.403       .  A
C2225      H2232   1.084       .  S
C2226      C2227   1.413       .  A
C2227      C2228   1.400       .  A
C2227      C2234   1.507       .  S
C2228      C2229   1.400       .  A
C2228      H2233   1.085       .  S
C2229      C2230   1.408       .  A
C2230      C2231   1.506       .  S
C2231      H2235   1.111       .  S
C2231      H2236   1.108       .  S
C2231      H2237   1.110       .  S
C2234      H2238   1.111       .  S
C2234      H2239   1.109       .  S
C2234      H2240   1.111       .  S
C2241      C2242   1.401       .  A
C2241      C2246   1.403       .  A
C2241      H2248   1.085       .  S
C2242      C2243   1.407       .  A
C2243      C2244   1.400       .  A
C2243      C2250   1.507       .  S
C2244      C2245   1.406       .  A
C2244      H2249   1.084       .  S
C2245      C2246   1.416       .  A
C2246      C2247   1.505       .  S
C2247      H2251   1.111       .  S
C2247      H2252   1.105       .  S
C2247      H2253   1.110       .  S
C2250      H2254   1.110       .  S
C2250      H2255   1.110       .  S
C2250      H2256   1.111       .  S
C2257      C2258   1.407       .  A
C2257      C2262   1.415       .  A
C2257      H2264   1.084       .  S
C2258      C2259   1.423       .  A
C2259      C2260   1.404       .  A
C2259      C2266   1.505       .  S
C2260      C2261   1.397       .  A
C2260      H2265   1.082       .  S
C2261      C2262   1.419       .  A
C2262      C2263   1.507       .  S
C2263      H2267   1.111       .  S
C2263      H2268   1.110       .  S
C2263      H2269   1.109       .  S
C2266      H2270   1.106   1_545  S
C2266      H2271   1.110       .  S
C2266      H2272   1.111       .  S
C2273      C2274   1.401       .  A
C2273      C2278   1.407       .  A
C2273      H2280   1.084       .  S
C2274      C2275   1.417       .  A
C2275      C2276   1.413       .  A
C2275      C2282   1.507       .  S
C2276      C2277   1.405       .  A
C2276      H2281   1.084       .  S
C2277      C2278   1.420       .  A
C2278      C2279   1.507       .  S
C2279      H2283   1.110       .  S
C2279      H2284   1.108       .  S
C2279      H2285   1.109       .  S
C2282      H2286   1.110       .  S
C2282      H2287   1.110       .  S
C2282      H2288   1.111       .  S
C2289      C2290   1.407   1_554  A
C2289      C2294   1.397       .  A
C2289      H2296   1.084       .  S
C2290      C2291   1.414       .  A
C2291      C2292   1.399       .  A
C2291      C2298   1.505       .  S
C2292      C2293   1.405   1_556  A
C2292      H2297   1.084       .  S
C2293      C2294   1.415       .  A
C2294      C2295   1.507       .  S
C2295      H2299   1.111       .  S
C2295      H2300   1.111       .  S
C2295      H2301   1.109       .  S
C2298      H2302   1.110       .  S
C2298      H2303   1.109       .  S
C2298      H2304   1.111       .  S
C2305      C2306   1.403       .  A
C2305      C2310   1.398       .  A
C2305      H2312   1.084       .  S
C2306      C2307   1.417       .  A
C2307      C2308   1.401       .  A
C2307      C2314   1.509       .  S
C2308      C2309   1.399       .  A
C2308      H2313   1.081       .  S
C2309      C2310   1.411       .  A
C2310      C2311   1.509       .  S
C2311      H2315   1.111       .  S
C2311      H2316   1.110       .  S
C2311      H2317   1.110       .  S
C2314      H2318   1.111       .  S
C2314      H2319   1.109       .  S
C2314      H2320   1.111       .  S
C2321      C2322   1.402       .  A
C2321      C2326   1.403       .  A
C2321      H2328   1.084       .  S
C2322      C2323   1.407       .  A
C2323      C2324   1.396       .  A
C2323      C2330   1.509       .  S
C2324      C2325   1.407       .  A
C2324      H2329   1.085       .  S
C2325      C2326   1.413       .  A
C2326      C2327   1.507       .  S
C2327      H2331   1.111       .  S
C2327      H2332   1.109       .  S
C2327      H2333   1.111       .  S
C2330      H2334   1.109       .  S
C2330      H2335   1.110       .  S
C2330      H2336   1.111       .  S
C2337      C2338   1.412       .  A
C2337      C2342   1.403       .  A
C2337      H2344   1.082       .  S
C2338      C2339   1.418       .  A
C2339      C2340   1.418       .  A
C2339      C2346   1.506   1_655  S
C2340      C2341   1.414       .  A
C2340      H2345   1.084       .  S
C2341      C2342   1.416       .  A
C2342      C2343   1.508       .  S
C2343      H2347   1.111       .  S
C2343      H2348   1.108       .  S
C2343      H2349   1.110       .  S
C2346      H2350   1.110       .  S
C2346      H2351   1.110       .  S
C2346      H2352   1.111       .  S
C2353      C2354   1.404       .  A
C2353      C2358   1.412       .  A
C2353      H2360   1.084       .  S
C2354      C2355   1.419       .  A
C2355      C2356   1.407       .  A
C2355      C2362   1.508       .  S
C2356      C2357   1.401       .  A
C2356      H2361   1.084       .  S
C2357      C2358   1.419       .  A
C2358      C2359   1.508       .  S
C2359      H2363   1.111       .  S
C2359      H2364   1.110       .  S
C2359      H2365   1.110       .  S
C2362      H2366   1.111       .  S
C2362      H2367   1.107       .  S
C2362      H2368   1.111       .  S
C2369      C2370   1.401   1_554  A
C2369      C2374   1.399       .  A
C2369      H2376   1.084       .  S
C2370      C2371   1.422       .  A
C2371      C2372   1.400       .  A
C2371      C2378   1.510       .  S
C2372      C2373   1.404   1_556  A
C2372      H2377   1.084       .  S
C2373      C2374   1.421       .  A
C2374      C2375   1.508       .  S
C2375      H2379   1.111       .  S
C2375      H2380   1.110       .  S
C2375      H2381   1.108       .  S
C2378      H2382   1.110       .  S
C2378      H2383   1.109       .  S
C2378      H2384   1.111       .  S
C2385      C2386   1.403       .  A
C2385      C2390   1.404       .  A
C2385      H2392   1.084       .  S
C2386      C2387   1.418       .  A
C2387      C2388   1.401       .  A
C2387      C2394   1.509       .  S
C2388      C2389   1.397       .  A
C2388      H2393   1.084       .  S
C2389      C2390   1.414       .  A
C2390      C2391   1.506       .  S
C2391      H2395   1.111       .  S
C2391      H2396   1.110       .  S
C2391      H2397   1.109       .  S
C2394      H2398   1.111       .  S
C2394      H2399   1.108       .  S
C2394      H2400   1.111       .  S
C2401      C2402   1.405       .  A
C2401      C2406   1.394       .  A
C2401      H2408   1.085       .  S
C2402      C2403   1.408       .  A
C2403      C2404   1.401       .  A
C2403      C2410   1.507       .  S
C2404      C2405   1.403       .  A
C2404      H2409   1.084       .  S
C2405      C2406   1.403       .  A
C2406      C2407   1.507       .  S
C2407      H2411   1.111       .  S
C2407      H2412   1.111       .  S
C2407      H2413   1.110       .  S
C2410      H2414   1.110       .  S
C2410      H2415   1.111       .  S
C2410      H2416   1.111       .  S
C2417      C2418   1.407       .  A
C2417      C2422   1.401       .  A
C2417      H2424   1.084       .  S
C2418      C2419   1.415       .  A
C2419      C2420   1.413       .  A
C2419      C2426   1.506       .  S
C2420      C2421   1.412       .  A
C2420      H2425   1.084       .  S
C2421      C2422   1.417       .  A
C2422      C2423   1.511       .  S
C2423      H2427   1.111       .  S
C2423      H2428   1.110       .  S
C2423      H2429   1.111       .  S
C2426      H2430   1.110       .  S
C2426      H2431   1.110       .  S
C2426      H2432   1.111       .  S
C2433      C2434   1.409       .  A
C2433      C2438   1.410       .  A
C2433      H2440   1.084       .  S
C2434      C2435   1.412       .  A
C2435      C2436   1.412       .  A
C2435      C2442   1.506       .  S
C2436      C2437   1.412       .  A
C2436      H2441   1.084       .  S
C2437      C2438   1.417       .  A
C2438      C2439   1.508       .  S
C2439      H2443   1.111       .  S
C2439      H2444   1.109       .  S
C2439      H2445   1.111       .  S
C2442      H2446   1.110       .  S
C2442      H2447   1.111       .  S
C2442      H2448   1.111       .  S
