geometry optimzed in LAMMPS
_audit_creation_date              2020-11-30 
_audit_creation_method            'lammps2cif' 
_symmetry_space_group_name_H-M    'P1' 
_symmetry_Int_Tables_number       1 
_symmetry_cell_setting            triclinic 
loop_ 
_symmetry_equiv_pos_as_xyz 
  x,y,z 
_cell_length_a                    64.20301149 
_cell_length_b                    63.70159738280846 
_cell_length_c                    64.2118564105383 
_cell_angle_alpha                 89.86746108426519 
_cell_angle_beta                  89.73551482647048 
_cell_angle_gamma                 90.49697930376142 
loop_ 
_atom_site_label 
_atom_site_type_symbol 
_atom_site_fract_x 
_atom_site_fract_y 
_atom_site_fract_z 
_atom_site_charge 
Zn1        Zn  0.47065083  0.47891406  0.99259288     1.49700
Zn2        Zn  0.50791826  0.47620604  0.02515889     1.49400
Zn3        Zn  0.50895372  0.51199335  0.98901796     1.49100
Zn4        Zn  0.47614371  0.51435763  0.02661910     1.49500
O5          O  0.49112652  0.49538250  0.00823910    -1.83100
O6          O  0.47560880  0.44801912  0.99584631    -0.73800
O7          O  0.53832741  0.48053344  0.01827223    -0.73600
O8          O  0.50100189  0.50566307  0.95895156    -0.73100
O9          O  0.50055190  0.44563715  0.01958986    -0.73800
O10         O  0.47270485  0.48541051  0.96208459    -0.73400
O11         O  0.53970540  0.50519087  0.99361952    -0.74000
O12         O  0.48169617  0.54438206  0.01917113    -0.73300
O13         O  0.50419305  0.48174465  0.05609491    -0.74100
O14         O  0.50480936  0.54354333  0.99330506    -0.73500
O15         O  0.48409641  0.50997871  0.05639182    -0.74000
O16         O  0.44522611  0.50969060  0.02532033    -0.73900
O17         O  0.44115223  0.48418380  0.00217643    -0.73700
C18         C  0.48752181  0.43709504  0.00723359     0.78100
C19         C  0.54868498  0.49231167  0.00586780     0.78600
C20         C  0.48581769  0.49548569  0.95091755     0.77600
C21         C  0.49319744  0.55371803  0.00584893     0.78000
C22         C  0.49461012  0.49615172  0.06588950     0.79100
C23         C  0.43362338  0.49708516  0.01525285     0.78100
Zn24       Zn  0.49149525  0.96354949  0.48523925     1.49700
Zn25       Zn  0.52641880  0.99930013  0.49085037     1.49400
Zn26       Zn  0.48646470  0.99892645  0.52130449     1.49100
Zn27       Zn  0.52179070  0.96348702  0.52480793     1.49500
O28         O  0.50632378  0.98132316  0.50556527    -1.83100
O29         O  0.50117452  0.97006069  0.45563543    -0.73800
O30         O  0.51998296  0.02962336  0.49540008    -0.73600
O31         O  0.45666524  0.99325819  0.51146163    -0.73100
O32         O  0.52572428  0.99443178  0.46004332    -0.73800
O33         O  0.46043699  0.96895960  0.48686443    -0.73400
O34         O  0.49293079  0.03010303  0.51715271    -0.74000
O35         O  0.51182349  0.96753724  0.55419316    -0.73300
O36         O  0.55588592  0.99462704  0.50031379    -0.74100
O37         O  0.48818731  0.99282002  0.55242579    -0.73500
O38         O  0.55272395  0.96971672  0.52433946    -0.74000
O39         O  0.51820718  0.93309471  0.51756136    -0.73900
O40         O  0.49662972  0.93241405  0.49057561    -0.73700
C41         C  0.51494369  0.98262856  0.44826667     0.78100
C42         C  0.50668002  0.03960235  0.50614187     0.78600
C43         C  0.44894976  0.98102408  0.49770396     0.77600
C44         C  0.49893720  0.97980735  0.56291605     0.78000
C45         C  0.56390744  0.98242350  0.51372835     0.79100
C46         C  0.50793604  0.92302043  0.50390611     0.78100
Zn47       Zn  0.01838981  0.48279337  0.48246947     1.49700
Zn48       Zn  0.98589104  0.52148878  0.48497862     1.49400
Zn49       Zn  0.98337798  0.48351996  0.51743072     1.49100
Zn50       Zn  0.02201001  0.51559516  0.52002962     1.49500
O51         O  0.00246161  0.50104926  0.50115395    -1.83100
O52         O  0.01350536  0.49117010  0.45267162    -0.73800
O53         O  0.95456575  0.51872822  0.49098551    -0.73600
O54         O  0.98540648  0.45302720  0.50973537    -0.73100
O55         O  0.99028039  0.51692432  0.45393456    -0.73800
O56         O  0.01044795  0.45198503  0.48580987    -0.73400
O57         O  0.95374151  0.49227734  0.51359493    -0.74000
O58         O  0.01564305  0.50859944  0.55044251    -0.73300
O59         O  0.99529670  0.55133289  0.49197015    -0.74100
O60         O  0.98941143  0.48574500  0.54790788    -0.73500
O61         O  0.01963868  0.54689701  0.51617076    -0.74000
O62         O  0.05228981  0.50797757  0.51383029    -0.73900
O63         O  0.04921794  0.48522132  0.48782524    -0.73700
C64         C  0.00194075  0.50451121  0.44366657     0.78100
C65         C  0.94449461  0.50616484  0.50291535     0.78600
C66         C  0.99692936  0.44278241  0.49729736     0.77600
C67         C  0.00224961  0.49625198  0.55880815     0.78000
C68         C  0.00877568  0.55877425  0.50460018     0.79100
C69         C  0.06041167  0.49565300  0.50048783     0.78100
Zn70       Zn  0.98266059  0.99591663  0.01757674     1.49700
Zn71       Zn  0.01609076  0.99294922  0.98113344     1.49400
Zn72       Zn  0.97958979  0.02680278  0.97796691     1.49100
Zn73       Zn  0.01630264  0.03282928  0.01111395     1.49500
O74         O  0.99857259  0.01220123  0.99694079    -1.83100
O75         O  0.98544641  0.96461157  0.01259954    -0.73800
O76         O  0.01113408  0.99629033  0.95060292    -0.73600
O77         O  0.94950294  0.02065578  0.98575437    -0.73100
O78         O  0.00968639  0.96266052  0.98791592    -0.73800
O79         O  0.95207170  0.00247099  0.01528422    -0.73400
O80         O  0.98501871  0.01880359  0.94781557    -0.74000
O81         O  0.00783665  0.06267923  0.00433982    -0.73300
O82         O  0.04656990  0.99908946  0.98546673    -0.74100
O83         O  0.98354106  0.05829313  0.98013294    -0.73500
O84         O  0.04641934  0.02926980  0.00279282    -0.74000
O85         O  0.01526460  0.02841665  0.04224816    -0.73900
O86         O  0.99254582  0.00224102  0.04690602    -0.73700
C87         C  0.99680019  0.95386665  0.00037527     0.78100
C88         C  0.99850290  0.00675029  0.93959434     0.78600
C89         C  0.94116390  0.01160568  0.00149996     0.77600
C90         C  0.99487599  0.07018940  0.99136778     0.78000
C91         C  0.05613737  0.01468478  0.99346903     0.79100
C92         C  0.00554704  0.01559387  0.05411610     0.78100
C93         C  0.74678456  0.52668187  0.99376114     0.04100
C94         C  0.72505948  0.52683262  0.99072656    -0.12000
C95         C  0.71169703  0.51380397  0.00246565     0.01600
C96         C  0.72038074  0.50053037  0.01763500    -0.10500
C97         C  0.74205576  0.49953638  0.02047950     0.04100
C98         C  0.75518742  0.51257913  0.00831837    -0.10000
H99         H  0.71841027  0.53692924  0.97895975     0.09700
H100        H  0.71039559  0.49104578  0.02755547     0.07200
H101        H  0.77186144  0.51251029  0.01075737     0.07100
C102        C  0.24052852  0.49611530  0.03171551     0.04100
C103        C  0.26213387  0.49346214  0.02995054    -0.12000
C104        C  0.27071913  0.48108513  0.01400396     0.01600
C105        C  0.25728271  0.47092400  0.00006381    -0.10500
C106        C  0.23556829  0.47313302  0.00175526     0.04100
C107        C  0.22729012  0.48548100  0.01778058    -0.10000
H108        H  0.27209099  0.50096518  0.04129783     0.09700
H109        H  0.26380952  0.46091414  0.98812725     0.07200
H110        H  0.21054684  0.48656072  0.01933665     0.07100
C111        C  0.97361245  0.49386762  0.24861566     0.04100
C112        C  0.97185374  0.49312629  0.27041645    -0.12000
C113        C  0.98077042  0.50877895  0.28286316     0.01600
C114        C  0.99151129  0.52547005  0.27322595    -0.10500
C115        C  0.99408994  0.52636569  0.25151197     0.04100
C116        C  0.98483412  0.51052774  0.23914815    -0.10000
H117        H  0.96342498  0.48025507  0.27776882     0.09700
H118        H  0.99793839  0.53799400  0.28265155     0.07200
H119        H  0.98639633  0.51092204  0.22239221     0.07100
C120        C  0.00455835  0.26739270  0.98754406     0.04100
C121        C  0.99277734  0.27855169  0.00223912    -0.12000
C122        C  0.98231866  0.26815590  0.01854800     0.01600
C123        C  0.98394255  0.24620927  0.02021222    -0.10500
C124        C  0.99516809  0.23460539  0.00544482     0.04100
C125        C  0.00551629  0.24532826  0.98912888    -0.10000
H126        H  0.99179868  0.29549407  0.00101890     0.09700
H127        H  0.97659160  0.23800819  0.03311417     0.07200
H128        H  0.01435092  0.23656921  0.97779299     0.07100
C129        C  0.00269808  0.48845369  0.75328827     0.04100
C130        C  0.00653901  0.49130738  0.73182435    -0.12000
C131        C  0.99535642  0.50619438  0.72030464     0.01600
C132        C  0.98040029  0.51839600  0.73045219    -0.10500
C133        C  0.97597540  0.51563341  0.75171209     0.04100
C134        C  0.98711979  0.50043962  0.76301202    -0.10000
H135        H  0.01808057  0.48190302  0.72399722     0.09700
H136        H  0.97183968  0.52994608  0.72157565     0.07200
H137        H  0.98369994  0.49766960  0.77930003     0.07100
Zn138      Zn  0.16567967  0.32970031  0.82445789     1.49700
Zn139      Zn  0.11947643  0.34423990  0.83687520     1.49400
Zn140      Zn  0.15680974  0.34499663  0.87052476     1.49100
Zn141      Zn  0.15797266  0.37777072  0.83274943     1.49500
O142        O  0.14972367  0.34926282  0.84118448    -1.83100
O143        O  0.14705618  0.31242951  0.80658569    -0.73800
O144        O  0.10507314  0.33560234  0.86418596    -0.73600
O145        O  0.17864570  0.32253546  0.87444463    -0.73100
O146        O  0.11476158  0.32008331  0.81644051    -0.73800
O147        O  0.18189517  0.30989810  0.84241050    -0.73400
O148        O  0.13155748  0.33517762  0.88643021    -0.74000
O149        O  0.16801298  0.39459501  0.85738857    -0.73300
O150        O  0.10612145  0.37056073  0.82443157    -0.74100
O151        O  0.16716705  0.37178597  0.88364449    -0.73500
O152        O  0.13321889  0.39242595  0.82082846    -0.74000
O153        O  0.18100825  0.37825743  0.81077187    -0.73900
O154        O  0.18584635  0.34430230  0.80530903    -0.73700
C155        C  0.12748046  0.30962883  0.80533573     0.78100
C156        C  0.11240416  0.33212549  0.88232056     0.78600
C157        C  0.18616194  0.30926799  0.86174571     0.77600
C158        C  0.17084784  0.39012310  0.87648893     0.78000
C159        C  0.11395536  0.38814846  0.81858896     0.79100
C160        C  0.19025454  0.36341343  0.80135788     0.78100
C161        C  0.99817647  0.75753862  0.97586775     0.04100
C162        C  0.01391702  0.74801683  0.98762306    -0.12000
C163        C  0.02946574  0.76013069  0.99733748     0.01600
C164        C  0.02932915  0.78194352  0.99481413    -0.10500
C165        C  0.01353054  0.79191715  0.98365716     0.04100
C166        C  0.99786165  0.77965508  0.97415563    -0.10000
H167        H  0.01418769  0.73107071  0.98867759     0.09700
H168        H  0.04137804  0.79136823  0.00214171     0.07200
H169        H  0.98567019  0.78726569  0.96544881     0.07100
Zn170      Zn  0.84645321  0.64706096  0.82116089     1.49700
Zn171      Zn  0.86267483  0.64667345  0.86911154     1.49400
Zn172      Zn  0.85363730  0.68963205  0.84558755     1.49100
Zn173      Zn  0.81538213  0.66000020  0.85833836     1.49500
O174        O  0.84451292  0.66060793  0.84864423    -1.83100
O175        O  0.86610699  0.62250558  0.82238175    -0.73800
O176        O  0.88359819  0.66743824  0.88248994    -0.73600
O177        O  0.86196061  0.69681687  0.81634807    -0.73100
O178        O  0.87902151  0.62371878  0.85452120    -0.73800
O179        O  0.85764620  0.66701820  0.79907317    -0.73400
O180        O  0.87772617  0.69616309  0.86380342    -0.74000
O181        O  0.80481495  0.68937293  0.86469143    -0.73300
O182        O  0.84492925  0.63249872  0.89166373    -0.74100
O183        O  0.83118479  0.70940493  0.85373191    -0.73500
O184        O  0.81242432  0.64160761  0.88402553    -0.74000
O185        O  0.79648499  0.64832653  0.83579331    -0.73900
O186        O  0.81801353  0.63806861  0.81065076    -0.73700
C187        C  0.87843404  0.61569503  0.83633897     0.78100
C188        C  0.88770439  0.68656752  0.87787522     0.78600
C189        C  0.86275153  0.68634937  0.79953531     0.77600
C190        C  0.81292730  0.70738981  0.86118488     0.78000
C191        C  0.82538154  0.63173289  0.89535942     0.79100
C192        C  0.79964435  0.64038316  0.81786468     0.78100
Zn193      Zn  0.86442101  0.34956934  0.16267606     1.49700
Zn194      Zn  0.82598343  0.38255595  0.16197540     1.49400
Zn195      Zn  0.82612288  0.34423309  0.12984701     1.49100
Zn196      Zn  0.81927816  0.33550122  0.17789973     1.49500
O197        O  0.83418631  0.35311672  0.15797955    -1.83100
O198        O  0.87803378  0.37778412  0.16959277    -0.73800
O199        O  0.81527384  0.39551357  0.13509595    -0.73600
O200        O  0.85091939  0.33175078  0.11551032    -0.73100
O201        O  0.85114341  0.39964524  0.17076835    -0.73800
O202        O  0.87791410  0.33684622  0.13668853    -0.73400
O203        O  0.81664866  0.36908084  0.11260107    -0.74000
O204        O  0.79897531  0.31643389  0.16389536    -0.73300
O205        O  0.80361461  0.38524541  0.18444793    -0.74100
O206        O  0.80282738  0.32213389  0.13002373    -0.73500
O207        O  0.80242566  0.35288591  0.19743208    -0.74000
O208        O  0.83829296  0.31752334  0.19482320    -0.73900
O209        O  0.87000166  0.32951155  0.18712587    -0.73700
C210        C  0.87053049  0.39602106  0.17275362     0.78100
C211        C  0.81283895  0.38821742  0.11677366     0.78600
C212        C  0.87022500  0.33013306  0.11959661     0.77600
C213        C  0.79384754  0.31271407  0.14515729     0.78000
C214        C  0.79671043  0.37196024  0.19770750     0.79100
C215        C  0.85789831  0.31738747  0.19751626     0.78100
Zn216      Zn  0.12711761  0.63845422  0.13410772     1.49700
Zn217      Zn  0.14781123  0.68366487  0.13942214     1.49400
Zn218      Zn  0.13429197  0.65613710  0.17995034     1.49100
Zn219      Zn  0.17332119  0.64241626  0.15109012     1.49500
O220        O  0.14567441  0.65528148  0.15132904    -1.83100
O221        O  0.11279016  0.65613633  0.11289213    -0.73800
O222        O  0.13892643  0.70467811  0.16087792    -0.73600
O223        O  0.10860417  0.63692946  0.18325379    -0.73100
O224        O  0.12868541  0.68723542  0.11454589    -0.73800
O225        O  0.10513792  0.62411914  0.15126949    -0.73400
O226        O  0.12815862  0.68639278  0.18856055    -0.74000
O227        O  0.18189820  0.63421924  0.18009264    -0.73300
O228        O  0.17773039  0.69147080  0.13182253    -0.74100
O229        O  0.15595600  0.64556499  0.20009503    -0.73500
O230        O  0.19524138  0.66308518  0.14124747    -0.74000
O231        O  0.17443358  0.61720038  0.13198977    -0.73900
O232        O  0.14251398  0.61593713  0.11880471    -0.73700
C233        C  0.11520952  0.67489576  0.10650462     0.78100
C234        C  0.13164430  0.70387580  0.17932689     0.78600
C235        C  0.09945387  0.62488314  0.17023087     0.77600
C236        C  0.17381746  0.63726659  0.19798070     0.78000
C237        C  0.19485493  0.68175905  0.13419934     0.79100
C238        C  0.16099913  0.60904559  0.11981827     0.78100
C239        C  0.49233328  0.23842279  0.04106072     0.04100
C240        C  0.49537945  0.26031343  0.04137147    -0.12000
C241        C  0.48374455  0.27359252  0.02849606     0.01600
C242        C  0.46857934  0.26470219  0.01529145    -0.10500
C243        C  0.46528758  0.24281209  0.01482112     0.04100
C244        C  0.47695799  0.22991147  0.02805557    -0.10000
H245        H  0.50661953  0.26720189  0.05191815     0.09700
H246        H  0.45880528  0.27472239  0.00598365     0.07200
H247        H  0.47439714  0.21306633  0.02787250     0.07100
C248        C  0.51452599  0.75036749  0.96368655     0.04100
C249        C  0.51584235  0.72840744  0.96441263    -0.12000
C250        C  0.50482156  0.71661693  0.97935678     0.01600
C251        C  0.49207887  0.72721794  0.99375315    -0.10500
C252        C  0.48981265  0.74919729  0.99281171     0.04100
C253        C  0.50134176  0.76067249  0.97790275    -0.10000
H254        H  0.52581284  0.72040824  0.95335977     0.09700
H255        H  0.48445938  0.71858253  0.00613690     0.07200
H256        H  0.49960730  0.77754474  0.97716624     0.07100
C257        C  0.49325135  0.96360986  0.25083996     0.04100
C258        C  0.49450019  0.96122946  0.27249800    -0.12000
C259        C  0.50410090  0.97645440  0.28500548     0.01600
C260        C  0.51298934  0.99430693  0.27540045    -0.10500
C261        C  0.51264044  0.99674071  0.25360210     0.04100
C262        C  0.50248039  0.98138705  0.24137234    -0.10000
H263        H  0.48741097  0.94752842  0.27977865     0.09700
H264        H  0.52010903  0.00650576  0.28471885     0.07200
H265        H  0.50166104  0.98326933  0.22466089     0.07100
C266        C  0.24924315  0.00257326  0.97443746     0.04100
C267        C  0.25962218  0.99095130  0.98989254    -0.12000
C268        C  0.24818375  0.97837321  0.00403359     0.01600
C269        C  0.22638320  0.97788894  0.00279949    -0.10500
C270        C  0.21585739  0.98934439  0.98756699     0.04100
C271        C  0.22744325  0.00135281  0.97318733    -0.10000
H272        H  0.27642236  0.99162425  0.99080152     0.09700
H273        H  0.21749315  0.96837091  0.01375589     0.07200
H274        H  0.21958474  0.00979021  0.96090052     0.07100
C275        C  0.74432506  0.00081941  0.98122376     0.04100
C276        C  0.76609421  0.00131771  0.97849565    -0.12000
C277        C  0.77859206  0.01550352  0.98959188     0.01600
C278        C  0.76907442  0.02960224  0.00342279    -0.10500
C279        C  0.74743738  0.02915103  0.00680318     0.04100
C280        C  0.73514861  0.01458680  0.99563922    -0.10000
H281        H  0.77353995  0.99029146  0.96810354     0.09700
H282        H  0.77843990  0.04117262  0.01151732     0.07200
H283        H  0.71839772  0.01428502  0.99752229     0.07100
Zn284      Zn  0.67498563  0.83615354  0.82108483     1.49700
Zn285      Zn  0.66400857  0.85389114  0.86629240     1.49400
Zn286      Zn  0.66538760  0.88459690  0.82636532     1.49100
Zn287      Zn  0.62839146  0.85036940  0.83071525     1.49500
O288        O  0.65806477  0.85632713  0.83622660    -1.83100
O289        O  0.69323025  0.82023220  0.84032138    -0.73800
O290        O  0.67492475  0.88150303  0.87796139    -0.73600
O291        O  0.68698181  0.88410700  0.80311307    -0.73100
O292        O  0.68578912  0.83155704  0.87213851    -0.73800
O293        O  0.69383608  0.85015685  0.80011419    -0.73400
O294        O  0.67677249  0.90214394  0.84998960    -0.74000
O295        O  0.61415730  0.87586995  0.81818639    -0.73300
O296        O  0.63797048  0.84522905  0.88196134    -0.74100
O297        O  0.64010266  0.89906093  0.81499233    -0.73500
O298        O  0.61368292  0.84176342  0.85751867    -0.74000
O299        O  0.62485096  0.82620451  0.81033789    -0.73900
O300        O  0.65728647  0.81520873  0.80577191    -0.73700
C301        C  0.69602106  0.81974133  0.85990518     0.78100
C302        C  0.67948557  0.89905187  0.86939639     0.78600
C303        C  0.69687506  0.86914027  0.79459906     0.77600
C304        C  0.62107036  0.89388427  0.81262583     0.78000
C305        C  0.61948655  0.84047843  0.87646318     0.79100
C306        C  0.63782763  0.81346772  0.80239884     0.78100
C307        C  0.47448145  0.01452260  0.75827151     0.04100
C308        C  0.48741005  0.99946783  0.76741112    -0.12000
C309        C  0.50075872  0.98717293  0.75521890     0.01600
C310        C  0.50043427  0.98945689  0.73341295    -0.10500
C311        C  0.48700462  0.00393989  0.72388419     0.04100
C312        C  0.47440614  0.01666211  0.73645171    -0.10000
H313        H  0.48734388  0.99755656  0.78419627     0.09700
H314        H  0.51043341  0.97983363  0.72387977     0.07200
H315        H  0.46393402  0.02760334  0.72906723     0.07100
Zn316      Zn  0.31890388  0.17474852  0.83680462     1.49700
Zn317      Zn  0.36770393  0.17156615  0.84528326     1.49400
Zn318      Zn  0.33442329  0.16708306  0.88290269     1.49100
Zn319      Zn  0.33785876  0.13053240  0.84766781     1.49500
O320        O  0.33993299  0.16086097  0.85331065    -1.83100
O321        O  0.33174474  0.19652592  0.81825604    -0.73800
O322        O  0.38268035  0.18361755  0.87041425    -0.73600
O323        O  0.31010808  0.18732890  0.88691840    -0.73100
O324        O  0.36589396  0.19463566  0.82333558    -0.73800
O325        O  0.29851564  0.18957044  0.85452501    -0.73400
O326        O  0.35980707  0.18019682  0.89637147    -0.74000
O327        O  0.32938630  0.11499835  0.87405373    -0.73300
O328        O  0.38511965  0.14813805  0.83331842    -0.74100
O329        O  0.32723435  0.14010253  0.89809161    -0.73500
O330        O  0.36526762  0.11951387  0.83680782    -0.74000
O331        O  0.31668655  0.12382789  0.82495962    -0.73900
O332        O  0.30270530  0.15496541  0.81890045    -0.73700
C333        C  0.35021075  0.20275849  0.81437940     0.78100
C334        C  0.37761049  0.18599810  0.88947820     0.78600
C335        C  0.29696746  0.19403668  0.87372859     0.77600
C336        C  0.32568418  0.12090863  0.89269028     0.78000
C337        C  0.38221647  0.12845620  0.83113184     0.79100
C338        C  0.30376637  0.13538516  0.81538728     0.78100
Zn339      Zn  0.35447646  0.80678390  0.13446160     1.49700
Zn340      Zn  0.36948455  0.85361423  0.12094797     1.49400
Zn341      Zn  0.32145553  0.84404141  0.13010750     1.49100
Zn342      Zn  0.35406178  0.84519681  0.16753070     1.49500
O343        O  0.34996280  0.83725703  0.13827869    -1.83100
O344        O  0.37680296  0.80182169  0.11206352    -0.73800
O345        O  0.35427975  0.87276138  0.10099416    -0.73600
O346        O  0.30556782  0.81819362  0.12136924    -0.73100
O347        O  0.38729336  0.83423813  0.10383326    -0.73800
O348        O  0.32742579  0.79176379  0.12619245    -0.73400
O349        O  0.32091336  0.86541839  0.10706337    -0.74000
O350        O  0.32763541  0.85688071  0.18026738    -0.73300
O351        O  0.38856655  0.87189072  0.13841661    -0.74100
O352        O  0.30518468  0.85599093  0.15406970    -0.73500
O353        O  0.37752861  0.86645059  0.17084022    -0.74000
O354        O  0.36154137  0.81979306  0.18442946    -0.73900
O355        O  0.36328679  0.79338741  0.16186065    -0.73700
C356        C  0.38841879  0.81442453  0.10158209     0.78100
C357        C  0.33504640  0.87564150  0.09731481     0.78600
C358        C  0.30943291  0.79864067  0.12147258     0.77600
C359        C  0.30947031  0.85991838  0.17297506     0.78000
C360        C  0.38985942  0.87538073  0.15788756     0.79100
C361        C  0.36471650  0.80054220  0.18036036     0.78100
Zn362      Zn  0.65584165  0.15506280  0.13710687     1.49700
Zn363      Zn  0.61874418  0.15089704  0.17246563     1.49400
Zn364      Zn  0.65674648  0.11727287  0.17017418     1.49100
Zn365      Zn  0.66483759  0.16417620  0.18460188     1.49500
O366        O  0.64871886  0.14671904  0.16591425    -1.83100
O367        O  0.62979643  0.16537115  0.12322873    -0.73800
O368        O  0.60501864  0.12258869  0.17985691    -0.73600
O369        O  0.66733767  0.10460236  0.14346193    -0.73100
O370        O  0.60432797  0.16329377  0.14693998    -0.73800
O371        O  0.66740222  0.13057107  0.12027165    -0.73400
O372        O  0.63156779  0.10028899  0.17887751    -0.74000
O373        O  0.68474468  0.14719417  0.20067697    -0.73300
O374        O  0.61457889  0.17099118  0.19746668    -0.74100
O375        O  0.67954695  0.11388205  0.19206027    -0.73500
O376        O  0.64729010  0.17843193  0.20581445    -0.74000
O377        O  0.68113075  0.18632020  0.16951026    -0.73900
O378        O  0.67692163  0.17928881  0.13598318    -0.73700
C379        C  0.61090343  0.16806777  0.12869295     0.78100
C380        C  0.61234470  0.10409615  0.18188722     0.78600
C381        C  0.67086939  0.11149007  0.12515522     0.77600
C382        C  0.68892679  0.12785199  0.20273870     0.78000
C383        C  0.62787267  0.18011190  0.20919389     0.79100
C384        C  0.68492399  0.19033314  0.15045165     0.78100
C385        C  0.47102650  0.48759957  0.25507705     0.04100
C386        C  0.47518102  0.48510164  0.23374826    -0.12000
C387        C  0.49073898  0.47143253  0.22671746     0.01600
C388        C  0.50180308  0.45961757  0.24129558    -0.10500
C389        C  0.49822104  0.46203950  0.26282336     0.04100
C390        C  0.48254157  0.47579130  0.26957128    -0.10000
H391        H  0.46603535  0.49377079  0.22256885     0.09700
H392        H  0.51322865  0.44855410  0.23570013     0.07200
H393        H  0.47948158  0.47713328  0.28608376     0.07100
C394        C  0.75263731  0.48126640  0.49146838     0.04100
C395        C  0.74178159  0.49319479  0.50636306    -0.12000
C396        C  0.75138502  0.51052407  0.51599841     0.01600
C397        C  0.77229557  0.51545845  0.51121425    -0.10500
C398        C  0.78362939  0.50313794  0.49701678     0.04100
C399        C  0.77353586  0.48632827  0.48708756    -0.10000
H400        H  0.72589120  0.48913082  0.51052585     0.09700
H401        H  0.77970628  0.52871482  0.51875600     0.07200
H402        H  0.78210813  0.47696507  0.47592817     0.07100
Zn403      Zn  0.64896012  0.30727579  0.36563944     1.49700
Zn404      Zn  0.63272538  0.35520595  0.37270334     1.49400
Zn405      Zn  0.68091467  0.34643572  0.36650992     1.49100
Zn406      Zn  0.65047972  0.34059345  0.32824083     1.49500
O407        O  0.65304845  0.33725170  0.35836559    -1.83100
O408        O  0.62703207  0.30450126  0.38877013    -0.73800
O409        O  0.64715501  0.37655805  0.39165264    -0.73600
O410        O  0.69799880  0.32187174  0.37510237    -0.73100
O411        O  0.61478990  0.33705451  0.39156149    -0.73800
O412        O  0.67659877  0.29422809  0.37446973    -0.73400
O413        O  0.68046161  0.36761554  0.38963856    -0.74000
O414        O  0.67683379  0.35221750  0.31504517    -0.73300
O415        O  0.61424048  0.37081066  0.35192277    -0.74100
O416        O  0.69668613  0.35918874  0.34243857    -0.73500
O417        O  0.62774199  0.36065069  0.32164795    -0.74000
O418        O  0.64290258  0.31323427  0.31433277    -0.73900
O419        O  0.63946435  0.29027448  0.34027167    -0.73700
C420        C  0.61453322  0.31774963  0.39687038     0.78100
C421        C  0.66604091  0.37880745  0.39737041     0.78600
C422        C  0.69469954  0.30226172  0.37699827     0.77600
C423        C  0.69361075  0.35941811  0.32289961     0.78000
C424        C  0.61465489  0.37126054  0.33203878     0.79100
C425        C  0.63863371  0.29482496  0.32091168     0.78100
C426        C  0.49647058  0.23855363  0.53422914     0.04100
C427        C  0.50905885  0.24718756  0.51825938    -0.12000
C428        C  0.51997996  0.23395967  0.50440843     0.01600
C429        C  0.51784792  0.21205258  0.50672358    -0.10500
C430        C  0.50524161  0.20325349  0.52251977     0.04100
C431        C  0.49496851  0.21667958  0.53631470    -0.10000
H432        H  0.51083566  0.26402102  0.51729472     0.09700
H433        H  0.52660921  0.20191069  0.49648885     0.07200
H434        H  0.48544902  0.21001175  0.54870490     0.07100
C435        C  0.48292157  0.72446795  0.48268410     0.04100
C436        C  0.48118205  0.74641636  0.48257259    -0.12000
C437        C  0.49463105  0.75907843  0.49434567     0.01600
C438        C  0.50959640  0.74940631  0.50712934    -0.10500
C439        C  0.51101806  0.72729745  0.50800696     0.04100
C440        C  0.49766334  0.71509461  0.49561259    -0.10000
H441        H  0.46926468  0.75381964  0.47328957     0.09700
H442        H  0.51996170  0.75897855  0.51633958     0.07200
H443        H  0.49882516  0.69812239  0.49591996     0.07100
Zn444      Zn  0.34650905  0.63599646  0.30551186     1.49700
Zn445      Zn  0.31083072  0.64735811  0.33904404     1.49400
Zn446      Zn  0.35588426  0.63255109  0.35469409     1.49100
Zn447      Zn  0.35024899  0.67729031  0.33259417     1.49500
O448        O  0.34083571  0.64810904  0.33301918    -1.83100
O449        O  0.31977510  0.62625310  0.29214945    -0.73800
O450        O  0.30472575  0.62882711  0.36393051    -0.73600
O451        O  0.37316196  0.60958154  0.34155613    -0.73100
O452        O  0.29496716  0.63623949  0.31423134    -0.73800
O453        O  0.36653069  0.61169023  0.30762092    -0.73400
O454        O  0.33575168  0.61882196  0.37542601    -0.74000
O455        O  0.37340489  0.68190205  0.35256323    -0.73300
O456        O  0.29964655  0.67628700  0.34567430    -0.74100
O457        O  0.37574871  0.65195666  0.37027617    -0.73500
O458        O  0.32765726  0.69657652  0.34155470    -0.74000
O459        O  0.35939276  0.68692230  0.30412400    -0.73900
O460        O  0.35831978  0.65770738  0.28540243    -0.73700
C461        C  0.30063028  0.62827191  0.29693329     0.78100
C462        C  0.31591167  0.61878572  0.37683527     0.78600
C463        C  0.37581158  0.60316341  0.32295414     0.77600
C464        C  0.38131157  0.67096942  0.36702687     0.78000
C465        C  0.30850717  0.69425296  0.34604947     0.79100
C466        C  0.36181015  0.67734490  0.28692854     0.78100
C467        C  0.25464629  0.48357741  0.51405504     0.04100
C468        C  0.23303370  0.48690754  0.51420406    -0.12000
C469        C  0.22410954  0.50283048  0.50197155     0.01600
C470        C  0.23719052  0.51558169  0.48960940    -0.10500
C471        C  0.25890410  0.51245333  0.48904846     0.04100
C472        C  0.26740377  0.49623985  0.50115726    -0.10000
H473        H  0.22330935  0.47735143  0.52433647     0.09700
H474        H  0.23016226  0.52745918  0.47991377     0.07200
H475        H  0.28398574  0.49340885  0.50027852     0.07100
C476        C  0.51753652  0.52109181  0.75618285     0.04100
C477        C  0.51759889  0.51938523  0.77795319    -0.12000
C478        C  0.50325308  0.50655738  0.78861873     0.01600
C479        C  0.48861953  0.49487737  0.77707683    -0.10500
C480        C  0.48823523  0.49628008  0.75516284     0.04100
C481        C  0.50256853  0.50959403  0.74486368    -0.10000
H482        H  0.52905910  0.52820217  0.78678448     0.09700
H483        H  0.47748436  0.48481964  0.78496745     0.07200
H484        H  0.50216665  0.51044078  0.72806014     0.07100
Zn485      Zn  0.33821738  0.33135605  0.67454641     1.49700
Zn486      Zn  0.34756703  0.34447644  0.62784615     1.49400
Zn487      Zn  0.34901792  0.37878843  0.66549905     1.49100
Zn488      Zn  0.38427859  0.34230579  0.66240790     1.49500
O489        O  0.35498854  0.34955815  0.65725692    -1.83100
O490        O  0.32142976  0.31184361  0.65773221    -0.73800
O491        O  0.33689622  0.37147647  0.61476674    -0.73600
O492        O  0.32454572  0.38072577  0.68630023    -0.73100
O493        O  0.32495965  0.32166406  0.62476349    -0.73800
O494        O  0.31751022  0.34698245  0.69101730    -0.73400
O495        O  0.34038026  0.39534721  0.63989747    -0.74000
O496        O  0.39916859  0.36751738  0.67448059    -0.73300
O497        O  0.37314026  0.33470151  0.61192590    -0.74100
O498        O  0.37487393  0.39199415  0.67866493    -0.73500
O499        O  0.39830605  0.33284649  0.63563646    -0.74000
O500        O  0.38754494  0.31910610  0.68425085    -0.73900
O501        O  0.35479945  0.31463404  0.69442187    -0.73700
C502        C  0.31652166  0.31006369  0.63869059     0.78100
C503        C  0.33534938  0.39031195  0.62134753     0.78600
C504        C  0.31350096  0.36612557  0.69446763     0.77600
C505        C  0.39353264  0.38554101  0.68086839     0.78000
C506        C  0.39184238  0.33050415  0.61699992     0.79100
C507        C  0.37404386  0.31066195  0.69628437     0.78100
Zn508      Zn  0.65570929  0.64470769  0.68256054     1.49700
Zn509      Zn  0.68955588  0.65252946  0.64636845     1.49400
Zn510      Zn  0.64226256  0.64042164  0.63423713     1.49100
Zn511      Zn  0.65241954  0.68522984  0.65375088     1.49500
O512        O  0.66004437  0.65558906  0.65417973    -1.83100
O513        O  0.68273605  0.63483328  0.69543728    -0.73800
O514        O  0.69265669  0.63144055  0.62278254    -0.73600
O515        O  0.62357926  0.61965545  0.64969363    -0.73100
O516        O  0.70629352  0.64222764  0.67095547    -0.73800
O517        O  0.63385174  0.62168308  0.68272003    -0.73400
O518        O  0.65996345  0.62455754  0.61330101    -0.74000
O519        O  0.62936993  0.69084016  0.63370189    -0.73300
O520        O  0.70233100  0.68080688  0.63783357    -0.74100
O521        O  0.62336091  0.66023294  0.61825040    -0.73500
O522        O  0.67649503  0.70291469  0.64433976    -0.74000
O523        O  0.64380727  0.69585938  0.68200739    -0.73900
O524        O  0.64569924  0.66745706  0.70195860    -0.73700
C525        C  0.70160679  0.63583457  0.68921032     0.78100
C526        C  0.67953373  0.62210516  0.61105227     0.78600
C527        C  0.62208097  0.61393237  0.66868979     0.77600
C528        C  0.61979113  0.67978237  0.62031275     0.78000
C529        C  0.69506076  0.69938946  0.63848540     0.79100
C530        C  0.64207404  0.68692300  0.69968570     0.78100
C531        C  0.25264164  0.02200554  0.50662633     0.04100
C532        C  0.24284654  0.01056616  0.49085085    -0.12000
C533        C  0.25379541  0.99595406  0.47878460     0.01600
C534        C  0.27537067  0.99338778  0.48226532    -0.10500
C535        C  0.28568066  0.00521663  0.49779761     0.04100
C536        C  0.27405471  0.01929164  0.50994749    -0.10000
H537        H  0.22632509  0.01276373  0.48825848     0.09700
H538        H  0.28402824  0.98226945  0.47310794     0.07200
H539        H  0.28191547  0.02856398  0.52169259     0.07100
C540        C  0.76104945  0.02087859  0.49852189     0.04100
C541        C  0.73932257  0.02066997  0.49550521    -0.12000
C542        C  0.72629304  0.00740922  0.50735289     0.01600
C543        C  0.73529286  0.99382359  0.52199699    -0.10500
C544        C  0.75689128  0.99369130  0.52522313     0.04100
C545        C  0.76963627  0.00763035  0.51369932    -0.10000
H546        H  0.73235238  0.03122734  0.48434394     0.09700
H547        H  0.72562888  0.98276907  0.53056790     0.07200
H548        H  0.78625443  0.00826531  0.51637931     0.07100
C549        C  0.01976829  0.24573382  0.51088164     0.04100
C550        C  0.02303410  0.26744292  0.50812949    -0.12000
C551        C  0.00994697  0.27921188  0.49515517     0.01600
C552        C  0.99383892  0.26885284  0.48428180    -0.10500
C553        C  0.99046332  0.24709063  0.48673466     0.04100
C554        C  0.00336025  0.23586417  0.50028293    -0.10000
H555        H  0.03515884  0.27547728  0.51673497     0.09700
H556        H  0.98395806  0.27777667  0.47408472     0.07200
H557        H  0.00068271  0.21917671  0.50252441     0.07100
C558        C  0.00013528  0.02747681  0.24962145     0.04100
C559        C  0.99731507  0.02589474  0.22807144    -0.12000
C560        C  0.00845292  0.01135167  0.21621603     0.01600
C561        C  0.02281494  0.99818108  0.22617706    -0.10500
C562        C  0.02620856  0.99970564  0.24784809     0.04100
C563        C  0.01454651  0.01426738  0.25946372    -0.10000
H564        H  0.98622422  0.03605898  0.22043249     0.09700
H565        H  0.03062128  0.98629822  0.21713674     0.07200
H566        H  0.01708776  0.01563242  0.27607311     0.07100
C567        C  0.02980177  0.75334342  0.48018939     0.04100
C568        C  0.01803798  0.76671600  0.49302159    -0.12000
C569        C  0.00239206  0.75866046  0.50615912     0.01600
C570        C  0.99836472  0.73691849  0.50630000    -0.10500
C571        C  0.01044734  0.72321587  0.49432664     0.04100
C572        C  0.02618324  0.73155013  0.48131832    -0.10000
H573        H  0.02113516  0.78342837  0.49321808     0.09700
H574        H  0.98575197  0.73049393  0.51564378     0.07200
H575        H  0.03512536  0.72118529  0.47143962     0.07100
Zn576      Zn  0.14960695  0.87364284  0.35249866     1.49700
Zn577      Zn  0.15208894  0.82477033  0.34079222     1.49400
Zn578      Zn  0.15975677  0.85863676  0.30459843     1.49100
Zn579      Zn  0.19298996  0.85246605  0.34103501     1.49500
O580        O  0.16342404  0.85264419  0.33461890    -1.83100
O581        O  0.12851510  0.85937601  0.37217566    -0.73800
O582        O  0.13962497  0.81146321  0.31553749    -0.73600
O583        O  0.14053184  0.88364199  0.30144511    -0.73100
O584        O  0.13067873  0.82577189  0.36327972    -0.73800
O585        O  0.13399133  0.89403444  0.33398691    -0.73400
O586        O  0.14694541  0.83332744  0.28943241    -0.74000
O587        O  0.21002500  0.86055836  0.31622162    -0.73300
O588        O  0.17401678  0.80471852  0.35035591    -0.74100
O589        O  0.18766209  0.86534772  0.29036175    -0.73500
O590        O  0.20281793  0.82415151  0.35020143    -0.74000
O591        O  0.20006131  0.87290307  0.36330053    -0.73900
O592        O  0.17081922  0.88987471  0.37053070    -0.73700
C593        C  0.12301431  0.84020909  0.37452560     0.78100
C594        C  0.13951766  0.81594675  0.29624751     0.78600
C595        C  0.13166220  0.89597501  0.31434121     0.77600
C596        C  0.20623649  0.86510502  0.29736003     0.78000
C597        C  0.19350900  0.80667248  0.35305552     0.79100
C598        C  0.19029919  0.88697671  0.37321693     0.78100
Zn599      Zn  0.87975415  0.16093831  0.33644388     1.49700
Zn600      Zn  0.84633810  0.15886757  0.37504310     1.49400
Zn601      Zn  0.83249384  0.17215118  0.32926161     1.49100
Zn602      Zn  0.84525466  0.12460317  0.33816232     1.49500
O603        O  0.85105989  0.15407885  0.34492306    -1.83100
O604        O  0.89437678  0.17432231  0.36082647    -0.73800
O605        O  0.82221953  0.17901925  0.38000073    -0.73600
O606        O  0.84789111  0.19250299  0.31061174    -0.73100
O607        O  0.87237434  0.17196293  0.38775712    -0.73800
O608        O  0.88074574  0.18202310  0.31233642    -0.73400
O609        O  0.81401372  0.18878660  0.34790674    -0.74000
O610        O  0.82280949  0.12153191  0.31620332    -0.73300
O611        O  0.83808957  0.13169432  0.38999576    -0.74100
O612        O  0.81351501  0.15472291  0.31156381    -0.73500
O613        O  0.83513796  0.10920320  0.36368860    -0.74000
O614        O  0.87116199  0.10990336  0.32837069    -0.73900
O615        O  0.89569671  0.13475020  0.32796345    -0.73700
C616        C  0.88987917  0.17758080  0.37989655     0.78100
C617        C  0.81119163  0.18973008  0.36748885     0.78600
C618        C  0.86681478  0.19393092  0.30476146     0.77600
C619        C  0.81122093  0.13522553  0.30778077     0.78000
C620        C  0.83335952  0.11355707  0.38294276     0.79100
C621        C  0.88995208  0.11570985  0.32535923     0.78100
C622        C  0.98304779  0.99644571  0.74407191     0.04100
C623        C  0.97910289  0.00009204  0.76519830    -0.12000
C624        C  0.99282328  0.01204312  0.77723562     0.01600
C625        C  0.01026538  0.02147175  0.76762542    -0.10500
C626        C  0.01400512  0.01885236  0.74620944     0.04100
C627        C  0.00048176  0.00597906  0.73451041    -0.10000
H628        H  0.96566664  0.99274416  0.77259751     0.09700
H629        H  0.02068039  0.03133912  0.77660333     0.07200
H630        H  0.00353781  0.00335743  0.71815481     0.07100
Zn631      Zn  0.86372161  0.81318903  0.64714199     1.49700
Zn632      Zn  0.86536544  0.85143201  0.67830126     1.49400
Zn633      Zn  0.87652052  0.85831498  0.63000645     1.49100
Zn634      Zn  0.82898557  0.84888532  0.64413962     1.49500
O635        O  0.85852546  0.84309790  0.64983631    -1.83100
O636        O  0.87135825  0.79975937  0.67435657    -0.73800
O637        O  0.88747607  0.87400005  0.67862304    -0.73600
O638        O  0.89523113  0.83873952  0.61349594    -0.73100
O639        O  0.87518655  0.82695874  0.69554102    -0.73800
O640        O  0.88683964  0.80769119  0.62713681    -0.73400
O641        O  0.89533742  0.87850636  0.64513869    -0.74000
O642        O  0.82670646  0.87187860  0.62219839    -0.73300
O643        O  0.83983709  0.86145382  0.69334473    -0.74100
O644        O  0.85927851  0.87600474  0.61066429    -0.73500
O645        O  0.81402949  0.85814132  0.67056329    -0.74000
O646        O  0.81393085  0.82238093  0.63420911    -0.73900
O647        O  0.83851579  0.79813933  0.63678971    -0.73700
C648        C  0.87575816  0.80731647  0.69213128     0.78100
C649        C  0.89795536  0.88304508  0.66422764     0.78600
C650        C  0.89768938  0.81893847  0.61477293     0.77600
C651        C  0.84002556  0.88061799  0.61005966     0.78000
C652        C  0.82060594  0.86240765  0.68880119     0.79100
C653        C  0.81996632  0.80340532  0.63259965     0.78100
Zn654      Zn  0.16225714  0.12606675  0.66338685     1.49700
Zn655      Zn  0.17041997  0.16044542  0.62701858     1.49400
Zn656      Zn  0.12993349  0.16384149  0.65621532     1.49100
Zn657      Zn  0.17502337  0.17256994  0.67513615     1.49500
O658        O  0.15934511  0.15564352  0.65531307    -1.83100
O659        O  0.17555032  0.10975025  0.63989869    -0.73800
O660        O  0.14807352  0.17152216  0.60786647    -0.73600
O661        O  0.11181747  0.13914309  0.66476937    -0.73100
O662        O  0.18152987  0.13343683  0.61496580    -0.73800
O663        O  0.13417347  0.11317451  0.67004419    -0.73400
O664        O  0.12017161  0.17444381  0.62823147    -0.74000
O665        O  0.15597692  0.19052062  0.69251635    -0.73300
O666        O  0.19353592  0.18243818  0.62682213    -0.74100
O667        O  0.12521657  0.18715929  0.67704622    -0.73500
O668        O  0.19468602  0.19191209  0.66006320    -0.74000
O669        O  0.19207983  0.15493073  0.69459854    -0.73900
O670        O  0.18055201  0.12248973  0.68891643    -0.73700
C671        C  0.18244837  0.11468152  0.62188448     0.78100
C672        C  0.12912959  0.17663336  0.61059735     0.78600
C673        C  0.11566334  0.12025489  0.66993825     0.77600
C674        C  0.13688005  0.19545728  0.69078466     0.78000
C675        C  0.20081334  0.19397784  0.64127272     0.79100
C676        C  0.19197009  0.13541401  0.69887768     0.78100
C677        C  0.05081481  0.04838704  0.70807353     0.19700
C678        C  0.04703358  0.06260980  0.69184070    -0.18400
C679        C  0.06311838  0.07522749  0.68383557    -0.10700
C680        C  0.08341982  0.07371881  0.69183915     0.21900
C681        C  0.08738659  0.05880898  0.70741583    -0.20000
C682        C  0.07126708  0.04631054  0.71553420    -0.10900
C683        C  0.10084589  0.08721989  0.68421474    -0.15000
C684        C  0.09804947  0.10651165  0.67613765    -0.28900
C685        C  0.03311760  0.03596923  0.71678775    -0.03100
C686        C  0.03241947  0.02952471  0.73676670    -0.39700
H687        H  0.03149087  0.06422491  0.68557183     0.13100
H688        H  0.05960402  0.08597489  0.67129473     0.12700
H689        H  0.10296317  0.05705909  0.71356628     0.12200
H690        H  0.07490705  0.03497235  0.72752174     0.12400
H691        H  0.11660407  0.08158464  0.68651661     0.15100
H692        H  0.08250285  0.11293562  0.67491299     0.13900
H693        H  0.01957457  0.03367755  0.70695727     0.11600
H694        H  0.04509252  0.03374045  0.74713219     0.13600
C695        C  0.96037712  0.95251133  0.70983863     0.19700
C696        C  0.96014558  0.94699254  0.68873759    -0.18400
C697        C  0.94683233  0.93103881  0.68166697    -0.10700
C698        C  0.93363895  0.92018802  0.69573759     0.21900
C699        C  0.93459915  0.92523014  0.71695162    -0.20000
C700        C  0.94780579  0.94114636  0.72395174    -0.10900
C701        C  0.91870678  0.90349026  0.68931927    -0.15000
C702        C  0.91350393  0.89932174  0.66949317    -0.28900
C703        C  0.97429903  0.96960357  0.71715620    -0.03100
C704        C  0.96868269  0.98200250  0.73309410    -0.39700
H705        H  0.97006602  0.95523561  0.67768283     0.13100
H706        H  0.94714812  0.92731932  0.66527246     0.12700
H707        H  0.92496063  0.91690635  0.72820044     0.12200
H708        H  0.94830255  0.94436283  0.74048950     0.12400
H709        H  0.91112971  0.89453169  0.70168800     0.15100
H710        H  0.92045509  0.90800353  0.65667251     0.13900
H711        H  0.98946099  0.97139502  0.70979643     0.11600
H712        H  0.95321124  0.98005504  0.73980124     0.13600
C713        C  0.06212193  0.78973503  0.44291081     0.19700
C714        C  0.05875337  0.80962171  0.43401969    -0.18400
C715        C  0.07257669  0.81800176  0.41918786    -0.10700
C716        C  0.09017505  0.80662475  0.41294425     0.21900
C717        C  0.09368293  0.78688110  0.42195621    -0.20000
C718        C  0.07999554  0.77858091  0.43688562    -0.10900
C719        C  0.10473727  0.81411552  0.39642804    -0.15000
C720        C  0.10763436  0.83438122  0.39085861    -0.28900
C721        C  0.04659649  0.78143494  0.45828997    -0.03100
C722        C  0.04603832  0.76148386  0.46550568    -0.39700
H723        H  0.04517484  0.81862772  0.43835216     0.13100
H724        H  0.06911593  0.83307961  0.41230686     0.12700
H725        H  0.10716081  0.77780462  0.41744072     0.12200
H726        H  0.08368160  0.76349811  0.44355240     0.12400
H727        H  0.11418948  0.80219272  0.38895734     0.15100
H728        H  0.09940519  0.84682389  0.39884727     0.13900
H729        H  0.03449332  0.79219843  0.46304285     0.11600
H730        H  0.05710836  0.75015182  0.45970849     0.13600
C731        C  0.96822694  0.78198487  0.55031982     0.19700
C732        C  0.96365403  0.77556607  0.57075109    -0.18400
C733        C  0.95062797  0.78744893  0.58344425    -0.10700
C734        C  0.94155702  0.80596462  0.57586855     0.21900
C735        C  0.94674788  0.81290850  0.55575101    -0.20000
C736        C  0.95981013  0.80097037  0.54297810    -0.10900
C737        C  0.92623955  0.81788191  0.58846783    -0.15000
C738        C  0.91338551  0.80813364  0.60202277    -0.28900
C739        C  0.98092429  0.76779340  0.53711616    -0.03100
C740        C  0.99009705  0.77348417  0.51904890    -0.39700
H741        H  0.97004064  0.76114314  0.57689188     0.13100
H742        H  0.94764280  0.78201415  0.59916395     0.12700
H743        H  0.94006764  0.82719894  0.54963504     0.12200
H744        H  0.96262846  0.80639488  0.52725283     0.12400
H745        H  0.92473082  0.83464210  0.58574870     0.15100
H746        H  0.91406199  0.79120071  0.60380254     0.13900
H747        H  0.98326292  0.75200084  0.54299098     0.11600
H748        H  0.98951417  0.78968102  0.51387807     0.13600
C749        C  0.96798233  0.05794053  0.29051140     0.19700
C750        C  0.95196647  0.05167319  0.30416851    -0.18400
C751        C  0.93807000  0.06643874  0.31226978    -0.10700
C752        C  0.94012069  0.08785568  0.30703206     0.21900
C753        C  0.95687130  0.09421393  0.29433794    -0.20000
C754        C  0.97059105  0.07944252  0.28606050    -0.10900
C755        C  0.92520356  0.10397574  0.31451890    -0.15000
C756        C  0.90508068  0.09960391  0.31878391    -0.28900
C757        C  0.98148689  0.04181929  0.28073589    -0.03100
C758        C  0.98829553  0.04382854  0.26096490    -0.39700
H759        H  0.94985826  0.03524714  0.30812141     0.13100
H760        H  0.92582163  0.06103035  0.32264652     0.12700
H761        H  0.95906211  0.11063221  0.29039886     0.12200
H762        H  0.98321016  0.08487447  0.27613415     0.12400
H763        H  0.93065451  0.12015156  0.31534795     0.15100
H764        H  0.89917336  0.08370563  0.31691627     0.13900
H765        H  0.98423693  0.02732356  0.28919016     0.11600
H766        H  0.98351831  0.05742684  0.25198783     0.13600
C767        C  0.07189135  0.96138448  0.26016371     0.19700
C768        C  0.06920590  0.95426204  0.28081943    -0.18400
C769        C  0.08319261  0.94000721  0.28959565    -0.10700
C770        C  0.10018413  0.93246144  0.27795542     0.21900
C771        C  0.10278380  0.93949316  0.25738125    -0.20000
C772        C  0.08890126  0.95380831  0.24864836    -0.10900
C773        C  0.11475593  0.91638012  0.28619899    -0.15000
C774        C  0.11791425  0.91283622  0.30664010    -0.28900
C775        C  0.05709291  0.97588719  0.24957413    -0.03100
C776        C  0.04115288  0.98585688  0.25903238    -0.39700
H777        H  0.05615314  0.95913932  0.29023787     0.13100
H778        H  0.08019346  0.93447486  0.30526503     0.12700
H779        H  0.11558696  0.93381458  0.24796347     0.12200
H780        H  0.09136955  0.95881582  0.23268377     0.12400
H781        H  0.12342068  0.90722625  0.27488271     0.15100
H782        H  0.11021758  0.92245248  0.31822040     0.13900
H783        H  0.05983054  0.97864698  0.23311203     0.11600
H784        H  0.03908877  0.98447193  0.27572739     0.13600
C785        C  0.08632434  0.20293974  0.57755421     0.19700
C786        C  0.06447040  0.20256959  0.57792517    -0.18400
C787        C  0.05304881  0.21354639  0.56301632    -0.10700
C788        C  0.06327619  0.22529201  0.54737382     0.21900
C789        C  0.08513484  0.22588691  0.54713476    -0.20000
C790        C  0.09657563  0.21478599  0.56198511    -0.10900
C791        C  0.05161094  0.23795801  0.53186777    -0.15000
C792        C  0.03213838  0.23300252  0.52575163    -0.28900
C793        C  0.09775254  0.19201333  0.59447724    -0.03100
C794        C  0.11771937  0.18587857  0.59288084    -0.39700
H795        H  0.05617633  0.19389920  0.58994791     0.13100
H796        H  0.03623783  0.21327254  0.56421273     0.12700
H797        H  0.09339471  0.23508842  0.53548184     0.12200
H798        H  0.11337582  0.21608559  0.56154971     0.12400
H799        H  0.05962595  0.25128082  0.52482379     0.15100
H800        H  0.02503339  0.21851101  0.53133691     0.13900
H801        H  0.08927907  0.18884857  0.60885380     0.11600
H802        H  0.12619203  0.18798922  0.57836135     0.13600
C803        C  0.94712512  0.22985635  0.44796902     0.19700
C804        C  0.94345268  0.23436746  0.42691884    -0.18400
C805        C  0.92914015  0.22250148  0.41548714    -0.10700
C806        C  0.91800856  0.20588060  0.42492613     0.21900
C807        C  0.92094999  0.20192530  0.44620627    -0.20000
C808        C  0.93542459  0.21371106  0.45763936    -0.10900
C809        C  0.90279229  0.19300417  0.41300447    -0.15000
C810        C  0.90543362  0.18885842  0.39263079    -0.28900
C811        C  0.96310722  0.24249354  0.45920302    -0.03100
C812        C  0.97340072  0.23537395  0.47601068    -0.39700
H813        H  0.95190874  0.24696881  0.41918606     0.13100
H814        H  0.92664738  0.22655321  0.39931823     0.12700
H815        H  0.91221162  0.18951634  0.45393268     0.12200
H816        H  0.93718795  0.21025930  0.47403154     0.12400
H817        H  0.88938458  0.18650591  0.42124592     0.15100
H818        H  0.91947340  0.19427485  0.38470980     0.13900
H819        H  0.96748291  0.25745263  0.45232321     0.11600
H820        H  0.97004412  0.21961716  0.48161973     0.13600
C821        C  0.80763488  0.92284831  0.58157818     0.19700
C822        C  0.78992655  0.93435020  0.58717020    -0.18400
C823        C  0.78260969  0.95046898  0.57439623    -0.10700
C824        C  0.79270139  0.95528497  0.55543568     0.21900
C825        C  0.81063651  0.94404788  0.55001681    -0.20000
C826        C  0.81798576  0.92794349  0.56282051    -0.10900
C827        C  0.78504576  0.97171436  0.54084271    -0.15000
C828        C  0.76528469  0.97871349  0.54085853    -0.28900
C829        C  0.81438936  0.90550214  0.59556670    -0.03100
C830        C  0.83346150  0.89688330  0.59504652    -0.39700
H831        H  0.78172584  0.93090481  0.60157842     0.13100
H832        H  0.76917464  0.95913799  0.57961924     0.12700
H833        H  0.81877811  0.94744669  0.53556445     0.12200
H834        H  0.83144714  0.91931217  0.55762046     0.12400
H835        H  0.79573159  0.97701061  0.52875318     0.15100
H836        H  0.75413979  0.97205650  0.55181861     0.13900
H837        H  0.80340064  0.90018861  0.60741980     0.11600
H838        H  0.84517421  0.90262321  0.58418637     0.13600
C839        C  0.80838620  0.08422956  0.42969339     0.19700
C840        C  0.81046393  0.08418757  0.45145487    -0.18400
C841        C  0.79878111  0.07019680  0.46382308    -0.10700
C842        C  0.78457968  0.05605988  0.45461923     0.21900
C843        C  0.78239120  0.05627730  0.43289449    -0.20000
C844        C  0.79412800  0.07012013  0.42056389    -0.10900
C845        C  0.77085202  0.04175771  0.46702926    -0.15000
C846        C  0.77511360  0.03521925  0.48651774    -0.10100
C847        C  0.82003665  0.10008837  0.41699344    -0.03100
C848        C  0.82475715  0.09701934  0.39678383    -0.39700
H849        H  0.82103216  0.09514249  0.45891790     0.13100
H850        H  0.80048171  0.07097969  0.48055170     0.12700
H851        H  0.77134623  0.04582181  0.42540882     0.12200
H852        H  0.79141755  0.07016052  0.40395208     0.12400
H853        H  0.75704041  0.03568314  0.45933761     0.15100
H854        H  0.78984961  0.03955518  0.49358617     0.13900
H855        H  0.82446201  0.11478642  0.42437663     0.11600
H856        H  0.82127241  0.08199112  0.38961108     0.13600
C857        C  0.20924615  0.08535698  0.57659733     0.19700
C858        C  0.20863007  0.08689887  0.55480085    -0.18400
C859        C  0.21958846  0.07275746  0.54231181    -0.10700
C860        C  0.23155674  0.05679007  0.55143049     0.21900
C861        C  0.23229548  0.05537049  0.57322456    -0.20000
C862        C  0.22124822  0.06942257  0.58569929    -0.10900
C863        C  0.24429229  0.04204092  0.53885662    -0.15000
C864        C  0.24006281  0.03709232  0.51893329    -0.28900
C865        C  0.19835635  0.10140781  0.58931345    -0.03100
C866        C  0.19208527  0.09809831  0.60909768    -0.39700
H867        H  0.19977661  0.09922636  0.54740304     0.13100
H868        H  0.21910740  0.07481588  0.52559933     0.12700
H869        H  0.24161593  0.04342179  0.58065268     0.12200
H870        H  0.22271187  0.06811510  0.60242206     0.12400
H871        H  0.25703611  0.03423103  0.54668383     0.15100
H872        H  0.22614611  0.04324236  0.51167355     0.13900
H873        H  0.19519711  0.11644280  0.58199026     0.11600
H874        H  0.19398569  0.08279570  0.61626772     0.13600
C875        C  0.20902875  0.92918473  0.41243077     0.19700
C876        C  0.20442194  0.95040295  0.41575433    -0.18400
C877        C  0.21710507  0.96289348  0.42849687    -0.10700
C878        C  0.23454452  0.95428173  0.43859205     0.21900
C879        C  0.23913949  0.93306952  0.43522208    -0.20000
C880        C  0.22648670  0.92060913  0.42248602    -0.10900
C881        C  0.24819298  0.96671318  0.45284236    -0.15000
C882        C  0.24160727  0.98397024  0.46293532    -0.28900
C883        C  0.19543185  0.91644083  0.39842038    -0.03100
C884        C  0.20265710  0.89975981  0.38792814    -0.39700
H885        H  0.19114593  0.95744075  0.40817837     0.13100
H886        H  0.21328776  0.97930673  0.43008434     0.12700
H887        H  0.25238788  0.92597554  0.44279845     0.12200
H888        H  0.23028370  0.90418265  0.42090823     0.12400
H889        H  0.26347699  0.96046213  0.45614042     0.15100
H890        H  0.22571661  0.98903783  0.46052279     0.13900
H891        H  0.17953469  0.92152368  0.39584765     0.11600
H892        H  0.21890550  0.89548285  0.38942227     0.13600
C893        C  0.76988189  0.77070794  0.62491774     0.19700
C894        C  0.74978948  0.77300220  0.63318910    -0.18400
C895        C  0.73612494  0.75584597  0.63447133    -0.10700
C896        C  0.74215147  0.73593885  0.62715597     0.21900
C897        C  0.76199542  0.73381229  0.61822115    -0.20000
C898        C  0.77566056  0.75100228  0.61690800    -0.10900
C899        C  0.72876692  0.71688422  0.62985281    -0.15000
C900        C  0.70808034  0.71779983  0.63298448    -0.28900
C901        C  0.78462732  0.78883972  0.62616633    -0.03100
C902        C  0.80539641  0.78644123  0.62668750    -0.39700
H903        H  0.74492199  0.78795078  0.63949167     0.13100
H904        H  0.72125008  0.75819993  0.64201121     0.12700
H905        H  0.76703277  0.71872240  0.61241264     0.12200
H906        H  0.79073347  0.74865160  0.60975850     0.12400
H907        H  0.73627479  0.70165914  0.62969362     0.15100
H908        H  0.70021501  0.73278099  0.63243361     0.13900
H909        H  0.77820182  0.80428380  0.62913795     0.11600
H910        H  0.81207702  0.77095578  0.62506703     0.13600
C911        C  0.26954923  0.27272045  0.64635947     0.19700
C912        C  0.26828624  0.25768250  0.63039333    -0.18400
C913        C  0.25267823  0.24207063  0.63099893    -0.10700
C914        C  0.23817312  0.24140868  0.64756465     0.21900
C915        C  0.23921144  0.25690755  0.66296890    -0.20000
C916        C  0.25465822  0.27230404  0.66238390    -0.10900
C917        C  0.22251056  0.22437877  0.65058496    -0.15000
C918        C  0.21663024  0.21025742  0.63616208    -0.28900
C919        C  0.28697208  0.28792311  0.64850345    -0.03100
C920        C  0.30000144  0.29464579  0.63331140    -0.39700
H921        H  0.27976230  0.25738686  0.61800821     0.13100
H922        H  0.25257139  0.23021762  0.61897957     0.12700
H923        H  0.22827646  0.25684598  0.67587731     0.12200
H924        H  0.25526850  0.28368671  0.67489206     0.12400
H925        H  0.21510035  0.22365763  0.66583595     0.15100
H926        H  0.22293181  0.21085034  0.62047365     0.13900
H927        H  0.28883940  0.29447519  0.66401861     0.11600
H928        H  0.29799113  0.28971440  0.61727770     0.13600
C929        C  0.55353608  0.55181580  0.71745794     0.19700
C930        C  0.55081022  0.56321111  0.69893818    -0.18400
C931        C  0.56692274  0.57587798  0.69090868    -0.10700
C932        C  0.58622246  0.57719790  0.70118976     0.21900
C933        C  0.58903866  0.56549316  0.71946332    -0.20000
C934        C  0.57302563  0.55278733  0.72740234    -0.10900
C935        C  0.60333834  0.59147910  0.69419753    -0.15000
C936        C  0.60575808  0.59840772  0.67449803    -0.28900
C937        C  0.53599001  0.53882988  0.72589716    -0.03100
C938        C  0.53402286  0.53455650  0.74639469    -0.39700
H939        H  0.53601743  0.56266200  0.69090198     0.13100
H940        H  0.56396793  0.58502091  0.67703752     0.12700
H941        H  0.60375112  0.56615380  0.72764526     0.12200
H942        H  0.57610769  0.54362766  0.74123424     0.12400
H943        H  0.61455564  0.59638895  0.70588501     0.15100
H944        H  0.59535711  0.59295537  0.66234510     0.13900
H945        H  0.52429596  0.53341919  0.71499964     0.11600
H946        H  0.54520834  0.54157274  0.75698260     0.13600
C947        C  0.44971727  0.45349437  0.73553254     0.19700
C948        C  0.44963848  0.43148390  0.73650371    -0.18400
C949        C  0.43539904  0.41969542  0.72483274    -0.10700
C950        C  0.42069860  0.42972496  0.71210326     0.21900
C951        C  0.42029337  0.45174494  0.71170560    -0.20000
C952        C  0.43474481  0.46354234  0.72315223    -0.10900
C953        C  0.40512602  0.41761025  0.69979837    -0.15000
C954        C  0.40922368  0.39857610  0.69177383    -0.28900
C955        C  0.46504283  0.46547188  0.74823736    -0.03100
C956        C  0.47265305  0.48445142  0.74260630    -0.39700
H957        H  0.46073780  0.42337162  0.74623035     0.13100
H958        H  0.43568076  0.40275850  0.72613083     0.12700
H959        H  0.40886289  0.45984014  0.70236621     0.12200
H960        H  0.43389683  0.48049149  0.72258921     0.12400
H961        H  0.39008403  0.42473414  0.69694678     0.15100
H962        H  0.42461712  0.39191853  0.69366447     0.13900
H963        H  0.47111202  0.45782975  0.76204805     0.11600
H964        H  0.46822175  0.49110458  0.72770076     0.13600
C965        C  0.30868256  0.41939554  0.57562864     0.19700
C966        C  0.29233055  0.41410933  0.56208697    -0.18400
C967        C  0.28361117  0.42923531  0.54891850    -0.10700
C968        C  0.29122201  0.45003658  0.54888307     0.21900
C969        C  0.30790505  0.45516261  0.56205012    -0.20000
C970        C  0.31649920  0.44010307  0.57531730    -0.10900
C971        C  0.28278097  0.46663926  0.53490977    -0.15000
C972        C  0.26324672  0.46639987  0.52723502    -0.28900
C973        C  0.31761802  0.40282255  0.58932366    -0.03100
C974        C  0.32736106  0.40698178  0.60744133    -0.39700
H975        H  0.28621624  0.39820902  0.56174985     0.13100
H976        H  0.27122870  0.42445076  0.53854784     0.12700
H977        H  0.31431036  0.47095122  0.56211786     0.12200
H978        H  0.32952317  0.44468098  0.58496676     0.12400
H979        H  0.29271302  0.48020033  0.53192008     0.15100
H980        H  0.25262262  0.45385401  0.53181544     0.13900
H981        H  0.31519723  0.38655326  0.58480368     0.11600
H982        H  0.32860868  0.42303642  0.61293570     0.13600
C983        C  0.23932974  0.76926669  0.36043004     0.19700
C984        C  0.25947567  0.77046798  0.35203872    -0.18400
C985        C  0.27163945  0.75254456  0.35029323    -0.10700
C986        C  0.26406883  0.73296121  0.35737677     0.21900
C987        C  0.24412371  0.73186594  0.36637739    -0.20000
C988        C  0.23186849  0.74985244  0.36801728    -0.10900
C989        C  0.27602737  0.71330837  0.35439828    -0.15000
C990        C  0.29674957  0.71324293  0.35136214    -0.28900
C991        C  0.22640056  0.78840685  0.35978531    -0.03100
C992        C  0.20550901  0.78788252  0.35861086    -0.39700
H993        H  0.26553497  0.78520814  0.34599163     0.13100
H994        H  0.28658537  0.75411915  0.34261779     0.12700
H995        H  0.23792769  0.71700516  0.37195938     0.12200
H996        H  0.21659428  0.74842527  0.37507887     0.12400
H997        H  0.26746830  0.69851253  0.35438858     0.15100
H998        H  0.30567861  0.72773231  0.35227464     0.13900
H999        H  0.23449531  0.80333425  0.35771697     0.11600
H1000       H  0.19706743  0.77309154  0.35965647     0.13600
C1001       C  0.28148689  0.55691485  0.45303371     0.19700
C1002       C  0.27484664  0.57721246  0.44777366    -0.18400
C1003       C  0.28564155  0.58931718  0.43299433    -0.10700
C1004       C  0.30343608  0.58140201  0.42298551     0.21900
C1005       C  0.31058169  0.56145192  0.42871306    -0.20000
C1006       C  0.29968578  0.54923168  0.44341558    -0.10900
C1007       C  0.31480420  0.59358466  0.40658801    -0.15000
C1008       C  0.30514329  0.60708810  0.39373997    -0.28900
C1009       C  0.26839046  0.54435318  0.46793376    -0.03100
C1010       C  0.27304183  0.52502251  0.47517055    -0.39700
H1011       H  0.26104854  0.58370762  0.45498420     0.13100
H1012       H  0.28004300  0.60490703  0.42952919     0.12700
H1013       H  0.32436204  0.55506264  0.42137570     0.12200
H1014       H  0.30550536  0.53374817  0.44677247     0.12400
H1015       H  0.33126004  0.59045016  0.40424641     0.15100
H1016       H  0.28842526  0.60917930  0.39506169     0.13900
H1017       H  0.25409910  0.55163168  0.47319853     0.11600
H1018       H  0.28785952  0.51803600  0.47123881     0.13600
C1019       C  0.57877904  0.69203992  0.57816519     0.19700
C1020       C  0.57443396  0.68394324  0.55834130    -0.18400
C1021       C  0.56073855  0.69427323  0.54495319    -0.10700
C1022       C  0.55075089  0.71283494  0.55130031     0.21900
C1023       C  0.55499131  0.72079734  0.57119905    -0.20000
C1024       C  0.56868399  0.71049740  0.58454561    -0.10900
C1025       C  0.53607736  0.72457208  0.53773545    -0.15000
C1026       C  0.52645799  0.71608415  0.52112398    -0.28900
C1027       C  0.59378258  0.68082386  0.59176805    -0.03100
C1028       C  0.60439805  0.69045639  0.60708100    -0.39700
H1029       H  0.58196575  0.66975813  0.55303564     0.13100
H1030       H  0.55843148  0.68779397  0.52959218     0.12700
H1031       H  0.54750111  0.73498557  0.57655628     0.12200
H1032       H  0.57100115  0.71694309  0.59992806     0.12400
H1033       H  0.53228628  0.74042971  0.54243618     0.15100
H1034       H  0.52897863  0.69968751  0.51749182     0.13900
H1035       H  0.59685513  0.66440539  0.58848288     0.11600
H1036       H  0.60237333  0.70711361  0.60979893     0.13600
C1037       C  0.44832726  0.70477241  0.43734141     0.19700
C1038       C  0.44570997  0.71167232  0.41678216    -0.18400
C1039       C  0.43257880  0.70088253  0.40321009    -0.10700
C1040       C  0.42136585  0.68304458  0.41002717     0.21900
C1041       C  0.42432740  0.67581094  0.43044682    -0.20000
C1042       C  0.43756720  0.68660475  0.44406044    -0.10900
C1043       C  0.40635418  0.67183154  0.39634648    -0.15000
C1044       C  0.39703166  0.68128334  0.38019274    -0.28900
C1045       C  0.46180303  0.71755643  0.45120894    -0.03100
C1046       C  0.46936715  0.71094786  0.46958463    -0.39700
H1047       H  0.45389589  0.72552315  0.41114631     0.13100
H1048       H  0.43146227  0.70656826  0.38738477     0.12700
H1049       H  0.41596538  0.66205830  0.43604697     0.12200
H1050       H  0.43882166  0.68091646  0.45986732     0.12400
H1051       H  0.40204555  0.65577314  0.40031469     0.15100
H1052       H  0.40028276  0.69766147  0.37673676     0.13900
H1053       H  0.46633371  0.73299371  0.44549124     0.11600
H1054       H  0.46667782  0.69491840  0.47470822     0.13600
C1055       C  0.43875335  0.30416452  0.58955646     0.19700
C1056       C  0.45421464  0.29051771  0.59675220    -0.18400
C1057       C  0.46710814  0.27986079  0.58277222    -0.10700
C1058       C  0.46488238  0.28265297  0.56114562     0.21900
C1059       C  0.45000863  0.29694152  0.55394603    -0.20000
C1060       C  0.43701925  0.30754382  0.56794416    -0.10900
C1061       C  0.47778303  0.27093127  0.54577453    -0.15000
C1062       C  0.48523026  0.25162860  0.54974500    -0.28900
C1063       C  0.42497868  0.31455177  0.60514288    -0.03100
C1064       C  0.40599903  0.32224526  0.60072218    -0.39700
H1065       H  0.45616863  0.28786985  0.61329861     0.13100
H1066       H  0.47888918  0.26958578  0.58899731     0.12700
H1067       H  0.44819663  0.29965735  0.53739599     0.12200
H1068       H  0.42581998  0.31844717  0.56173026     0.12400
H1069       H  0.47970660  0.27761475  0.53030654     0.15100
H1070       H  0.48145064  0.24419922  0.56453626     0.13900
H1071       H  0.43015297  0.31463869  0.62123720     0.11600
H1072       H  0.39996430  0.32131555  0.58500211     0.13600
C1073       C  0.76754690  0.23089271  0.36980923     0.19700
C1074       C  0.76545563  0.25059612  0.36034012    -0.18400
C1075       C  0.74801136  0.26289414  0.36425243    -0.10700
C1076       C  0.73201167  0.25561023  0.37752339     0.21900
C1077       C  0.73397025  0.23581319  0.38693738    -0.20000
C1078       C  0.75173482  0.22362031  0.38333450    -0.10900
C1079       C  0.71257421  0.26786921  0.38003575    -0.15000
C1080       C  0.71305618  0.28896029  0.38057253    -0.28900
C1081       C  0.78532823  0.21764501  0.36342790    -0.03100
C1082       C  0.79439925  0.20322972  0.37569725    -0.39700
H1083       H  0.77724098  0.25636311  0.34957668     0.13100
H1084       H  0.74668403  0.27776465  0.35618653     0.12700
H1085       H  0.72166772  0.22972462  0.39690713     0.12200
H1086       H  0.75265889  0.20821965  0.39040816     0.12400
H1087       H  0.69775110  0.25951353  0.38011485     0.15100
H1088       H  0.72803678  0.29699287  0.38143007     0.13900
H1089       H  0.79149762  0.22025892  0.34782770     0.11600
H1090       H  0.78946136  0.20129591  0.39178883     0.13600
C1091       C  0.55289822  0.26932112  0.46642073     0.19700
C1092       C  0.55020803  0.28893308  0.45682646    -0.18400
C1093       C  0.56435286  0.29629834  0.44175652    -0.10700
C1094       C  0.58182961  0.28428993  0.43608748     0.21900
C1095       C  0.58456522  0.26473205  0.44578628    -0.20000
C1096       C  0.57041677  0.25736953  0.46083570    -0.10900
C1097       C  0.59729461  0.29122405  0.41993225    -0.15000
C1098       C  0.59915657  0.31111440  0.41292075    -0.28900
C1099       C  0.53753236  0.26222870  0.48258246    -0.03100
C1100       C  0.53460985  0.24188981  0.48789895    -0.39700
H1101       H  0.53693631  0.29852848  0.46083808     0.13100
H1102       H  0.56120784  0.31122229  0.43445436     0.12700
H1103       H  0.59786118  0.25514361  0.44184238     0.12200
H1104       H  0.57357251  0.24250009  0.46827233     0.12400
H1105       H  0.60788779  0.27948770  0.41386191     0.15100
H1106       H  0.58936006  0.32332559  0.41925575     0.13900
H1107       H  0.52804615  0.27424022  0.48971302     0.11600
H1108       H  0.54326676  0.23005840  0.47946921     0.13600
C1109       C  0.71181766  0.58235537  0.57960869     0.19700
C1110       C  0.71927292  0.56237519  0.58479715    -0.18400
C1111       C  0.72785849  0.54936442  0.56949142    -0.10700
C1112       C  0.72969088  0.55638267  0.54877490     0.21900
C1113       C  0.72230642  0.57641411  0.54362139    -0.20000
C1114       C  0.71316441  0.58917514  0.55881411    -0.10900
C1115       C  0.74073117  0.54386085  0.53270479    -0.15000
C1116       C  0.73964634  0.52276142  0.53177385    -0.28900
C1117       C  0.70413196  0.59641737  0.59632628    -0.03100
C1118       C  0.68701561  0.60824347  0.59419782    -0.39700
H1119       H  0.71857272  0.55689606  0.60076977     0.13100
H1120       H  0.73381887  0.53419111  0.57403880     0.12700
H1121       H  0.72376914  0.58225495  0.52781999     0.12200
H1122       H  0.70788232  0.60467449  0.55447788     0.12400
H1123       H  0.74952743  0.55235335  0.52083762     0.15100
H1124       H  0.72919195  0.51428477  0.54222424     0.13900
H1125       H  0.71220844  0.59625633  0.61116491     0.11600
H1126       H  0.67768827  0.60689999  0.58017891     0.13600
C1127       C  0.69730831  0.41248617  0.43684502     0.19700
C1128       C  0.71554463  0.40889707  0.44826423    -0.18400
C1129       C  0.72355660  0.42420577  0.46166659    -0.10700
C1130       C  0.71364445  0.44370720  0.46375670     0.21900
C1131       C  0.69501778  0.44706224  0.45289502    -0.20000
C1132       C  0.68696595  0.43170719  0.43947551    -0.10900
C1133       C  0.72247001  0.46094918  0.47677748    -0.15000
C1134       C  0.74306041  0.46309148  0.48040148    -0.28900
C1135       C  0.69052494  0.39629973  0.42152363    -0.03100
C1136       C  0.67130376  0.39490130  0.41319667    -0.39700
H1137       H  0.72376777  0.39420173  0.44667407     0.13100
H1138       H  0.73752231  0.42067434  0.47030924     0.12700
H1139       H  0.68700310  0.46189040  0.45429574     0.12200
H1140       H  0.67308152  0.43529342  0.43074671     0.12400
H1141       H  0.71191928  0.47312087  0.48193488     0.15100
H1142       H  0.75371776  0.45193497  0.47347791     0.13900
H1143       H  0.70205936  0.38475318  0.41700781     0.11600
H1144       H  0.65909258  0.40547141  0.41812652     0.13600
C1145       C  0.40800431  0.55963049  0.29607271     0.19700
C1146       C  0.40555977  0.54814359  0.27761697    -0.18400
C1147       C  0.41932364  0.53205298  0.27244491    -0.10700
C1148       C  0.43625740  0.52729102  0.28548894     0.21900
C1149       C  0.43852468  0.53862178  0.30409954    -0.20000
C1150       C  0.42466076  0.55464178  0.30933340    -0.10900
C1151       C  0.45196084  0.51088670  0.28032372    -0.15000
C1152       C  0.45444210  0.50271400  0.26111412    -0.28900
C1153       C  0.39335959  0.57713600  0.30038513    -0.03100
C1154       C  0.39020843  0.58549348  0.31938440    -0.39700
H1155       H  0.39284908  0.55158558  0.26714019     0.13100
H1156       H  0.41638534  0.52343340  0.25828430     0.12700
H1157       H  0.45134308  0.53533659  0.31449057     0.12200
H1158       H  0.42745637  0.56336344  0.32348025     0.12400
H1159       H  0.46260384  0.50644984  0.29259611     0.15100
H1160       H  0.44471816  0.50829081  0.24856007     0.13900
H1161       H  0.38446408  0.58312379  0.28732494     0.11600
H1162       H  0.39813153  0.57919003  0.33286956     0.13600
C1163       C  0.57072787  0.40868097  0.31512817     0.19700
C1164       C  0.54996617  0.41198838  0.32115293    -0.18400
C1165       C  0.53651946  0.42358861  0.30845753    -0.10700
C1166       C  0.54376077  0.43239208  0.28956880     0.21900
C1167       C  0.56468317  0.42948602  0.28392950    -0.20000
C1168       C  0.57801907  0.41792917  0.29653492    -0.10900
C1169       C  0.53034662  0.44425201  0.27483687    -0.15000
C1170       C  0.51057028  0.45025883  0.27853434    -0.28900
C1171       C  0.58456422  0.39560149  0.32834524    -0.03100
C1172       C  0.60012005  0.38432286  0.32000662    -0.39700
H1173       H  0.54401358  0.40517529  0.33548442     0.13100
H1174       H  0.52052564  0.42524874  0.31342765     0.12700
H1175       H  0.57080596  0.43618257  0.26960711     0.12200
H1176       H  0.59410469  0.41645110  0.29170175     0.12400
H1177       H  0.53756690  0.44874511  0.26015483     0.15100
H1178       H  0.50345132  0.44748055  0.29363375     0.13900
H1179       H  0.58143467  0.39460662  0.34496188     0.11600
H1180       H  0.60228394  0.38422541  0.30322734     0.13600
C1181       C  0.75993936  0.13629194  0.27698124     0.19700
C1182       C  0.76076052  0.12235889  0.25999683    -0.18400
C1183       C  0.74389859  0.12083673  0.24618837    -0.10700
C1184       C  0.72608467  0.13319992  0.24930998     0.21900
C1185       C  0.72505714  0.14620809  0.26684508    -0.20000
C1186       C  0.74175606  0.14776305  0.28045757    -0.10900
C1187       C  0.70934384  0.13541147  0.23370195    -0.15000
C1188       C  0.70491645  0.12196707  0.21815377    -0.28900
C1189       C  0.77808362  0.14117950  0.29032617    -0.03100
C1190       C  0.79431039  0.12843973  0.29370806    -0.39700
H1191       H  0.77471706  0.11353886  0.25671257     0.13100
H1192       H  0.74532434  0.11092383  0.23260794     0.12700
H1193       H  0.71154287  0.15590916  0.26960977     0.12200
H1194       H  0.74070705  0.15856454  0.29342700     0.12400
H1195       H  0.70002080  0.14952657  0.23509152     0.15100
H1196       H  0.71270670  0.10697536  0.21685519     0.13900
H1197       H  0.77766805  0.15615102  0.29842577     0.11600
H1198       H  0.79463955  0.11275788  0.28715047     0.13600
C1199       C  0.63028138  0.21134257  0.26081596     0.19700
C1200       C  0.61887470  0.22995963  0.25855131    -0.18400
C1201       C  0.61880063  0.24504450  0.27449675    -0.10700
C1202       C  0.62999022  0.24168138  0.29304089     0.21900
C1203       C  0.64029236  0.22254793  0.29567534    -0.20000
C1204       C  0.64068723  0.20771594  0.27965995    -0.10900
C1205       C  0.63210345  0.25798101  0.30956369    -0.15000
C1206       C  0.63303583  0.27866798  0.30525289    -0.28900
C1207       C  0.63409353  0.19672759  0.24317216    -0.03100
C1208       C  0.62104316  0.19318566  0.22708101    -0.39700
H1209       H  0.61089916  0.23335710  0.24413417     0.13100
H1210       H  0.61028272  0.25943600  0.27214496     0.12700
H1211       H  0.64890899  0.21947045  0.30980980     0.12200
H1212       H  0.64966793  0.19355581  0.28178586     0.12400
H1213       H  0.63531283  0.25273491  0.32533764     0.15100
H1214       H  0.63132230  0.28394551  0.28926396     0.13900
H1215       H  0.64881434  0.18841341  0.24347047     0.11600
H1216       H  0.60556630  0.19991038  0.22699550     0.13600
C1217       C  0.24212849  0.87266100  0.24945974     0.19700
C1218       C  0.24111912  0.88216502  0.22974161    -0.18400
C1219       C  0.25821083  0.88157080  0.21608903    -0.10700
C1220       C  0.27659905  0.87120683  0.22187806     0.21900
C1221       C  0.27778671  0.86226853  0.24178519    -0.20000
C1222       C  0.26074839  0.86276140  0.25533542    -0.10900
C1223       C  0.29453153  0.86838902  0.20746127    -0.15000
C1224       C  0.29246982  0.86725668  0.18666132    -0.28900
C1225       C  0.22321294  0.87190705  0.26299115    -0.03100
C1226       C  0.22436250  0.86940282  0.28375048    -0.39700
H1227       H  0.22699453  0.88987586  0.22481422     0.13100
H1228       H  0.25690454  0.88909589  0.20103763     0.12700
H1229       H  0.29170409  0.85410185  0.24659158     0.12200
H1230       H  0.26205767  0.85459501  0.27004256     0.12400
H1231       H  0.30950151  0.86468355  0.21433407     0.15100
H1232       H  0.27737269  0.86966825  0.17955698     0.13900
H1233       H  0.20804195  0.87283875  0.25563107     0.11600
H1234       H  0.23945292  0.86950356  0.29129075     0.13600
C1235       C  0.37230083  0.72339764  0.24894056     0.19700
C1236       C  0.38014384  0.74394429  0.25077458    -0.18400
C1237       C  0.38039345  0.75757305  0.23365402    -0.10700
C1238       C  0.37242317  0.75102605  0.21430327     0.21900
C1239       C  0.36526252  0.73025377  0.21229020    -0.20000
C1240       C  0.36506625  0.71660489  0.22939568    -0.10900
C1241       C  0.37061324  0.76545676  0.19610954    -0.15000
C1242       C  0.36951882  0.78646382  0.19799054    -0.28900
C1243       C  0.37011657  0.71030727  0.26807618    -0.03100
C1244       C  0.36770374  0.68926825  0.26796896    -0.39700
H1245       H  0.38583967  0.74958521  0.26561968     0.13100
H1246       H  0.38672135  0.77320222  0.23576212     0.12700
H1247       H  0.35907483  0.72477016  0.19758770     0.12200
H1248       H  0.35841473  0.70110265  0.22736100     0.12400
H1249       H  0.36834207  0.75846191  0.18085613     0.15100
H1250       H  0.37056290  0.79370927  0.21321974     0.13900
H1251       H  0.36974852  0.71853247  0.28288819     0.11600
H1252       H  0.36887019  0.68058884  0.25350489     0.13600
C1253       C  0.23548843  0.13193559  0.73957219     0.19700
C1254       C  0.25731230  0.13287571  0.73858192    -0.18400
C1255       C  0.26918570  0.13163850  0.75675413    -0.10700
C1256       C  0.25935410  0.13011965  0.77629920     0.21900
C1257       C  0.23756005  0.12853041  0.77725290    -0.20000
C1258       C  0.22570817  0.12907781  0.75901428    -0.10900
C1259       C  0.27124293  0.13408615  0.79560601    -0.15000
C1260       C  0.29033647  0.12635304  0.79905599    -0.28900
C1261       C  0.22324230  0.13703980  0.72075485    -0.03100
C1262       C  0.20496361  0.12774273  0.71616796    -0.39700
H1263       H  0.26514013  0.13534759  0.72378548     0.13100
H1264       H  0.28594463  0.13342266  0.75563155     0.12700
H1265       H  0.22967515  0.12772235  0.79218867     0.12200
H1266       H  0.20888261  0.12875437  0.76025551     0.12400
H1267       H  0.26453276  0.14491628  0.80679584     0.15100
H1268       H  0.29666242  0.11433138  0.78892363     0.13900
H1269       H  0.22942795  0.14913543  0.71041162     0.11600
H1270       H  0.19943461  0.11441538  0.72528426     0.13600
C1271       C  0.37214086  0.24418818  0.77623069     0.19700
C1272       C  0.38562912  0.24345782  0.75897154    -0.18400
C1273       C  0.38504842  0.25919386  0.74364575    -0.10700
C1274       C  0.37110902  0.27602668  0.74560330     0.21900
C1275       C  0.35852947  0.27724143  0.76346716    -0.20000
C1276       C  0.35910025  0.26161492  0.77865266    -0.10900
C1277       C  0.36742949  0.29151112  0.72875754    -0.15000
C1278       C  0.38053332  0.29594387  0.71285867    -0.28900
C1279       C  0.37109690  0.22640001  0.79120173    -0.03100
C1280       C  0.35274774  0.22016321  0.79941838    -0.39700
H1281       H  0.39591918  0.23023644  0.75688235     0.13100
H1282       H  0.39479555  0.25761270  0.72996701     0.12700
H1283       H  0.34777636  0.29011076  0.76545214     0.12200
H1284       H  0.34902391  0.26301053  0.79213828     0.12400
H1285       H  0.35272272  0.29982656  0.72956399     0.15100
H1286       H  0.39592983  0.28909422  0.71210860     0.13900
H1287       H  0.38517249  0.21770979  0.79458418     0.11600
H1288       H  0.33854884  0.22791286  0.79457417     0.13600
C1289       C  0.41192909  0.08325873  0.80446726     0.19700
C1290       C  0.41176574  0.06129207  0.80626941    -0.18400
C1291       C  0.42541060  0.04908671  0.79443142    -0.10700
C1292       C  0.43947030  0.05864457  0.78037064     0.21900
C1293       C  0.43939019  0.08057509  0.77830715    -0.20000
C1294       C  0.42584629  0.09278591  0.79023416    -0.10900
C1295       C  0.45361661  0.04624257  0.76684505    -0.15000
C1296       C  0.46050268  0.02698695  0.77191955    -0.28900
C1297       C  0.39645530  0.09554961  0.81658464    -0.03100
C1298       C  0.39880138  0.11608763  0.82103618    -0.39700
H1299       H  0.40092606  0.05352417  0.81679093     0.13100
H1300       H  0.42447887  0.03218903  0.79594703     0.12700
H1301       H  0.44979289  0.08829992  0.76732549     0.12200
H1302       H  0.42595960  0.10958197  0.78776524     0.12400
H1303       H  0.45923160  0.05369352  0.75264320     0.15100
H1304       H  0.45657169  0.02039786  0.78705525     0.13900
H1305       H  0.38252601  0.08732307  0.82195582     0.11600
H1306       H  0.41296201  0.12439091  0.81658199     0.13600
C1307       C  0.77071185  0.86676354  0.72181506     0.19700
C1308       C  0.75093236  0.87583847  0.72021164    -0.18400
C1309       C  0.73671280  0.87450985  0.73681932    -0.10700
C1310       C  0.74191675  0.86361031  0.75512889     0.21900
C1311       C  0.76160328  0.85440732  0.75662490    -0.20000
C1312       C  0.77591804  0.85609029  0.74025798    -0.10900
C1313       C  0.72666157  0.85997416  0.77219842    -0.15000
C1314       C  0.71204113  0.87390434  0.77779843    -0.28900
C1315       C  0.78506456  0.86686955  0.70358137    -0.03100
C1316       C  0.80588179  0.86717925  0.70584648    -0.39700
H1317       H  0.74642899  0.88379061  0.70602207     0.13100
H1318       H  0.72142379  0.88128767  0.73500722     0.12700
H1319       H  0.76583039  0.84564903  0.77043721     0.12200
H1320       H  0.79074335  0.84828207  0.74177080     0.12400
H1321       H  0.72801768  0.84543782  0.78097939     0.15100
H1322       H  0.71147465  0.88917983  0.77028722     0.13900
H1323       H  0.77835456  0.86578419  0.68811224     0.11600
H1324       H  0.81246678  0.86932884  0.72125989     0.13600
C1325       C  0.63264709  0.73393450  0.73605030     0.19700
C1326       C  0.62285281  0.75351499  0.73468610    -0.18400
C1327       C  0.62471524  0.76819141  0.75079201    -0.10700
C1328       C  0.63668929  0.76361137  0.76849538     0.21900
C1329       C  0.64594425  0.74381780  0.77012832    -0.20000
C1330       C  0.64389859  0.72908540  0.75417101    -0.10900
C1331       C  0.64208336  0.77983937  0.78416631    -0.15000
C1332       C  0.63021404  0.79658955  0.78854238    -0.28900
C1333       C  0.63315679  0.72013107  0.71741157    -0.03100
C1334       C  0.63695201  0.69939831  0.71835758    -0.39700
H1335       H  0.61434176  0.75774930  0.72078880     0.13100
H1336       H  0.61777998  0.78347694  0.74877457     0.12700
H1337       H  0.65545151  0.74001436  0.78349153     0.12200
H1338       H  0.65220179  0.71446137  0.75562528     0.12400
H1339       H  0.65677141  0.77799694  0.79230672     0.15100
H1340       H  0.61481159  0.79805371  0.78181918     0.13900
H1341       H  0.63141073  0.72758025  0.70228023     0.11600
H1342       H  0.63763183  0.69148894  0.73332195     0.13600
C1343       C  0.54618896  0.94975582  0.76873055     0.19700
C1344       C  0.56766763  0.95027462  0.76462451    -0.18400
C1345       C  0.58103579  0.93615730  0.77441165    -0.10700
C1346       C  0.57315610  0.92105160  0.78850255     0.21900
C1347       C  0.55158770  0.92010713  0.79210478    -0.20000
C1348       C  0.53822413  0.93433558  0.78241509    -0.10900
C1349       C  0.58686267  0.90562362  0.79907531    -0.15000
C1350       C  0.60716862  0.90937389  0.80281122    -0.28900
C1351       C  0.53254580  0.96501866  0.75790382    -0.03100
C1352       C  0.51422035  0.97154190  0.76577253    -0.39700
H1353       H  0.57415549  0.96172283  0.75384843     0.13100
H1354       H  0.59743952  0.93690618  0.77055001     0.12700
H1355       H  0.54506001  0.90837516  0.80254789     0.12200
H1356       H  0.52167166  0.93294828  0.78539699     0.12400
H1357       H  0.57987920  0.89095262  0.80440041     0.15100
H1358       H  0.61408995  0.92438042  0.79852324     0.13900
H1359       H  0.53844759  0.97198685  0.74358013     0.11600
H1360       H  0.50935170  0.96615992  0.78110663     0.13600
C1361       C  0.69456714  0.08694139  0.07534267     0.19700
C1362       C  0.70965482  0.09361009  0.06083198    -0.18400
C1363       C  0.71799023  0.07954505  0.04633177    -0.10700
C1364       C  0.71128212  0.05841995  0.04594594     0.21900
C1365       C  0.69572636  0.05194941  0.06005765    -0.20000
C1366       C  0.68749032  0.06597589  0.07461832    -0.10900
C1367       C  0.71962063  0.04285164  0.03076715    -0.15000
C1368       C  0.73845366  0.04478489  0.02153408    -0.28900
C1369       C  0.68613147  0.10228885  0.09064255    -0.03100
C1370       C  0.67898900  0.09651524  0.10957331    -0.39700
H1371       H  0.71512102  0.10974789  0.06080520     0.13100
H1372       H  0.72937795  0.08543656  0.03527255     0.12700
H1373       H  0.68997591  0.03591146  0.05989362     0.12200
H1374       H  0.67534662  0.06041007  0.08503642     0.12400
H1375       H  0.71033377  0.02881682  0.02809881     0.15100
H1376       H  0.74840488  0.05794980  0.02571892     0.13900
H1377       H  0.68672768  0.11886095  0.08659251     0.11600
H1378       H  0.67969112  0.08015660  0.11427866     0.13600
C1379       C  0.70265419  0.93194107  0.91453815     0.19700
C1380       C  0.69933919  0.93323729  0.93614278    -0.18400
C1381       C  0.70967389  0.94849571  0.94806162    -0.10700
C1382       C  0.72372872  0.96270331  0.93857125     0.21900
C1383       C  0.72721257  0.96119503  0.91703473    -0.20000
C1384       C  0.71683345  0.94606753  0.90514245    -0.10900
C1385       C  0.73614415  0.97836424  0.95056002    -0.15000
C1386       C  0.73096295  0.98562057  0.96960474    -0.28900
C1387       C  0.69207066  0.91501804  0.90243552    -0.03100
C1388       C  0.68859019  0.91636892  0.88179198    -0.39700
H1389       H  0.68879246  0.92232415  0.94384523     0.13100
H1390       H  0.70702998  0.94869130  0.96470469     0.12700
H1391       H  0.73822208  0.97166272  0.90936437     0.12200
H1392       H  0.72048466  0.94515081  0.88871538     0.12400
H1393       H  0.74994165  0.98470307  0.94289436     0.15100
H1394       H  0.71620676  0.98100470  0.97661735     0.13900
H1395       H  0.68686625  0.90108577  0.91083634     0.11600
H1396       H  0.69267061  0.93064637  0.87342015     0.13600
C1397       C  0.30170912  0.91252977  0.06314782     0.19700
C1398       C  0.28013446  0.91462078  0.06058742    -0.18400
C1399       C  0.27206845  0.92911489  0.04651581    -0.10700
C1400       C  0.28542842  0.94219498  0.03473524     0.21900
C1401       C  0.30702561  0.94006484  0.03712523    -0.20000
C1402       C  0.31514144  0.92550109  0.05125706    -0.10900
C1403       C  0.27727796  0.95734056  0.01913384    -0.15000
C1404       C  0.25803567  0.96549374  0.02051675    -0.28900
C1405       C  0.30910530  0.89665454  0.07843477    -0.03100
C1406       C  0.32914363  0.89140453  0.08150754    -0.39700
H1407       H  0.26938407  0.90478392  0.06936978     0.13100
H1408       H  0.25535650  0.92955479  0.04460317     0.12700
H1409       H  0.31765991  0.94978912  0.02809266     0.12200
H1410       H  0.33185868  0.92464613  0.05272331     0.12400
H1411       H  0.28726357  0.96139044  0.00602374     0.15100
H1412       H  0.24833823  0.96161002  0.03388493     0.13900
H1413       H  0.29719034  0.88872908  0.08771150     0.11600
H1414       H  0.34160245  0.89879480  0.07264885     0.13600
C1415       C  0.30625653  0.06984156  0.91934300     0.19700
C1416       C  0.29478678  0.05255256  0.91200172    -0.18400
C1417       C  0.28595943  0.03802145  0.92587607    -0.10700
C1418       C  0.28850213  0.04042734  0.94749745     0.21900
C1419       C  0.30071742  0.05720168  0.95482234    -0.20000
C1420       C  0.30946108  0.07182507  0.94093630    -0.10900
C1421       C  0.27864283  0.02574669  0.96273869    -0.15000
C1422       C  0.26048999  0.01578268  0.95888656    -0.28900
C1423       C  0.31467957  0.08526616  0.90396236    -0.03100
C1424       C  0.31906033  0.10541623  0.90863102    -0.39700
H1425       H  0.29238708  0.05043224  0.89544578     0.13100
H1426       H  0.27729289  0.02486520  0.91958919     0.12700
H1427       H  0.30321303  0.05919954  0.97137771     0.12200
H1428       H  0.31882209  0.08449476  0.94719364     0.12400
H1429       H  0.28559778  0.02451174  0.97807135     0.15100
H1430       H  0.25253405  0.01880158  0.94431147     0.13900
H1431       H  0.31604984  0.08016206  0.88787217     0.11600
H1432       H  0.31667965  0.11117212  0.92434851     0.13600
C1433       C  0.54213428  0.03544648  0.21665325     0.19700
C1434       C  0.55717534  0.03251809  0.20101342    -0.18400
C1435       C  0.56898258  0.04947526  0.19339616    -0.10700
C1436       C  0.56589470  0.06987209  0.20117451     0.21900
C1437       C  0.55016294  0.07296775  0.21608187    -0.20000
C1438       C  0.53845962  0.05596939  0.22383114    -0.10900
C1439       C  0.57877859  0.08815849  0.19408093    -0.15000
C1440       C  0.59870574  0.08616963  0.18780929    -0.28900
C1441       C  0.53056484  0.01678942  0.22494453    -0.03100
C1442       C  0.52259345  0.01588559  0.24440064    -0.39700
H1443       H  0.56006154  0.01696836  0.19490348     0.13100
H1444       H  0.58041100  0.04654902  0.18133637     0.12700
H1445       H  0.54718413  0.08855127  0.22205314     0.12200
H1446       H  0.52648560  0.05901078  0.23531192     0.12400
H1447       H  0.57216954  0.10375103  0.19536610     0.15100
H1448       H  0.60582862  0.07077623  0.18784180     0.13900
H1449       H  0.53012167  0.00283762  0.21527793     0.11600
H1450       H  0.52485789  0.02919049  0.25470151     0.13600
C1451       C  0.42705609  0.90679640  0.19390488     0.19700
C1452       C  0.43488600  0.90301843  0.21390696    -0.18400
C1453       C  0.44944724  0.91666354  0.22288526    -0.10700
C1454       C  0.45662620  0.93460967  0.21203045     0.21900
C1455       C  0.44882838  0.93834562  0.19195281    -0.20000
C1456       C  0.43424989  0.92462770  0.18294420    -0.10900
C1457       C  0.47081358  0.95057453  0.22167590    -0.15000
C1458       C  0.48201008  0.94697951  0.23902097    -0.28900
C1459       C  0.41062977  0.89239051  0.18568594    -0.03100
C1460       C  0.40614151  0.89015906  0.16533070    -0.39700
H1461       H  0.42946803  0.88955289  0.22280607     0.13100
H1462       H  0.45431338  0.91331446  0.23860900     0.12700
H1463       H  0.45377022  0.95215798  0.18331992     0.12200
H1464       H  0.42822245  0.92845385  0.16771786     0.12400
H1465       H  0.47121852  0.96612665  0.21473017     0.15100
H1466       H  0.48176738  0.93150605  0.24605046     0.13900
H1467       H  0.40229797  0.88265935  0.19694328     0.11600
H1468       H  0.41502311  0.89877267  0.15366165     0.13600
C1469       C  0.57295155  0.81296724  0.90382585     0.19700
C1470       C  0.55984928  0.79638050  0.89768326    -0.18400
C1471       C  0.54688557  0.78618159  0.91213486    -0.10700
C1472       C  0.54668307  0.79242255  0.93315977     0.21900
C1473       C  0.55929067  0.80946530  0.93916136    -0.20000
C1474       C  0.57233798  0.81961297  0.92471129    -0.10900
C1475       C  0.53330042  0.78182189  0.94911496    -0.15000
C1476       C  0.52682433  0.76171744  0.94741202    -0.28900
C1477       C  0.58680076  0.82298931  0.88795169    -0.03100
C1478       C  0.60483541  0.83278938  0.89265617    -0.39700
H1479       H  0.55977669  0.79114891  0.88163993     0.13100
H1480       H  0.53687155  0.77364384  0.90665840     0.12700
H1481       H  0.55919006  0.81483545  0.95515672     0.12200
H1482       H  0.58168188  0.83277649  0.92992905     0.12400
H1483       H  0.52988711  0.79044632  0.96326615     0.15100
H1484       H  0.53195295  0.75254310  0.93415322     0.13900
H1485       H  0.58274991  0.82086035  0.87166928     0.11600
H1486       H  0.60989412  0.83380588  0.90872497     0.13600
C1487       C  0.41857652  0.77847635  0.06342753     0.19700
C1488       C  0.43771468  0.78840221  0.05859206    -0.18400
C1489       C  0.45091614  0.78018506  0.04321656    -0.10700
C1490       C  0.44527131  0.76184981  0.03230108     0.21900
C1491       C  0.42620373  0.75201404  0.03723528    -0.20000
C1492       C  0.41308955  0.76016374  0.05260968    -0.10900
C1493       C  0.45909309  0.75161203  0.01663086    -0.15000
C1494       C  0.47608194  0.76059698  0.00774221    -0.28900
C1495       C  0.40416982  0.78629959  0.07993343    -0.03100
C1496       C  0.40365205  0.80644277  0.08617483    -0.39700
H1497       H  0.44286458  0.80217431  0.06700255     0.13100
H1498       H  0.46569011  0.78797257  0.04042315     0.12700
H1499       H  0.42146921  0.73779495  0.02926326     0.12200
H1500       H  0.39854294  0.75210805  0.05604920     0.12400
H1501       H  0.45468464  0.73583974  0.01191679     0.15100
H1502       H  0.47976279  0.77694425  0.01078134     0.13900
H1503       H  0.39280433  0.77529279  0.08635959     0.11600
H1504       H  0.41401384  0.81793062  0.07900739     0.13600
C1505       C  0.53729793  0.21524700  0.07407367     0.19700
C1506       C  0.55880618  0.21926092  0.07477203    -0.18400
C1507       C  0.57162827  0.20803449  0.08822538    -0.10700
C1508       C  0.56324170  0.19239690  0.10139519     0.21900
C1509       C  0.54170624  0.18841875  0.10084946    -0.20000
C1510       C  0.52883136  0.19963648  0.08728042    -0.10900
C1511       C  0.57646409  0.18096461  0.11659660    -0.15000
C1512       C  0.59687054  0.17761534  0.11322158    -0.28900
C1513       C  0.52435577  0.22867752  0.06032190    -0.03100
C1514       C  0.50467068  0.22415014  0.05453094    -0.39700
H1515       H  0.56572844  0.23138915  0.06504128     0.13100
H1516       H  0.58800150  0.21214736  0.08868820     0.12700
H1517       H  0.53481004  0.17668360  0.11105264     0.12200
H1518       H  0.51227949  0.19640238  0.08768137     0.12400
H1519       H  0.56920993  0.17510975  0.13081252     0.15100
H1520       H  0.60387884  0.18230153  0.09849333     0.13900
H1521       H  0.53176472  0.24279322  0.05418915     0.11600
H1522       H  0.49763827  0.20921510  0.05885715     0.13600
C1523       C  0.40334589  0.20975060  0.93867219     0.19700
C1524       C  0.40099099  0.20619169  0.96015229    -0.18400
C1525       C  0.41411969  0.21613231  0.97448676    -0.10700
C1526       C  0.42989256  0.23000976  0.96761632     0.21900
C1527       C  0.43186294  0.23404419  0.94619348    -0.20000
C1528       C  0.41882428  0.22400210  0.93184632    -0.10900
C1529       C  0.44428406  0.24084630  0.98227625    -0.15000
C1530       C  0.44956672  0.23284738  0.00095638    -0.28900
C1531       C  0.38875895  0.19907130  0.92406192    -0.03100
C1532       C  0.39280729  0.19605729  0.90366823    -0.39700
H1533       H  0.38894777  0.19562040  0.96587969     0.13100
H1534       H  0.41162692  0.21315660  0.99090677     0.12700
H1535       H  0.44365229  0.24492499  0.94050863     0.12200
H1536       H  0.42070427  0.22780062  0.91552340     0.12400
H1537       H  0.45196139  0.25508436  0.97677762     0.15100
H1538       H  0.44349723  0.21757042  0.00558775     0.13900
H1539       H  0.37419989  0.19307582  0.93052680     0.11600
H1540       H  0.40762286  0.20101829  0.89703316     0.13600
C1541       C  0.12914808  0.78202276  0.24741022     0.19700
C1542       C  0.13942460  0.78066372  0.22813102    -0.18400
C1543       C  0.13727792  0.76278194  0.21567436    -0.10700
C1544       C  0.12454109  0.74582426  0.22212209     0.21900
C1545       C  0.11362224  0.74751070  0.24100765    -0.20000
C1546       C  0.11568193  0.76545361  0.25342048    -0.10900
C1547       C  0.12380273  0.72557899  0.21051093    -0.15000
C1548       C  0.12834948  0.72408304  0.19009767    -0.28900
C1549       C  0.13382734  0.80034574  0.26115732    -0.03100
C1550       C  0.13122342  0.79975714  0.28196487    -0.39700
H1551       H  0.14985811  0.79313555  0.22305203     0.13100
H1552       H  0.14641277  0.76199470  0.20151522     0.12700
H1553       H  0.10366611  0.73475101  0.24632896     0.12200
H1554       H  0.10683879  0.76606756  0.26776411     0.12400
H1555       H  0.12015355  0.71138357  0.21926043     0.15100
H1556       H  0.13119248  0.73821663  0.18102450     0.13900
H1557       H  0.14160787  0.81390424  0.25423338     0.11600
H1558       H  0.12464131  0.78586144  0.28932444     0.13600
C1559       C  0.23666103  0.72424834  0.12182124     0.19700
C1560       C  0.23773527  0.74212373  0.10904184    -0.18400
C1561       C  0.25579299  0.75459584  0.10826058    -0.10700
C1562       C  0.27316528  0.74971141  0.12065195     0.21900
C1563       C  0.27227982  0.73149341  0.13301161    -0.20000
C1564       C  0.25425343  0.71894515  0.13369350    -0.10900
C1565       C  0.29208677  0.76351336  0.12177231    -0.15000
C1566       C  0.29199424  0.78407380  0.11674802    -0.28900
C1567       C  0.21651755  0.71252296  0.12357853    -0.03100
C1568       C  0.21502659  0.69233604  0.12972065    -0.39700
H1569       H  0.22445677  0.74656000  0.09971184     0.13100
H1570       H  0.25593030  0.76805059  0.09797948     0.12700
H1571       H  0.28536456  0.72730385  0.14272346     0.12200
H1572       H  0.25394335  0.70561355  0.14415360     0.12400
H1573       H  0.30600073  0.75703127  0.12880406     0.15100
H1574       H  0.27785787  0.79121809  0.11103679     0.13900
H1575       H  0.20235929  0.72099486  0.11995983     0.11600
H1576       H  0.22904671  0.68337709  0.13250457     0.13600
C1577       C  0.21925442  0.62370017  0.23459360     0.19700
C1578       C  0.23754004  0.61187837  0.23297932    -0.18400
C1579       C  0.25205380  0.61169332  0.24916332    -0.10700
C1580       C  0.24869680  0.62365906  0.26725980     0.21900
C1581       C  0.23006322  0.63486128  0.26916862    -0.20000
C1582       C  0.21555608  0.63502520  0.25301887    -0.10900
C1583       C  0.26444553  0.62580991  0.28407727    -0.15000
C1584       C  0.28489371  0.62207248  0.28135312    -0.28900
C1585       C  0.20549648  0.62537912  0.21610019    -0.03100
C1586       C  0.18568182  0.63211517  0.21693674    -0.39700
H1587       H  0.24077530  0.60300706  0.21898196     0.13100
H1588       H  0.26587463  0.60231469  0.24725309     0.12700
H1589       H  0.22705968  0.64420808  0.28290778     0.12200
H1590       H  0.20198221  0.64479359  0.25478966     0.12400
H1591       H  0.25929727  0.63263932  0.29867217     0.15100
H1592       H  0.29067279  0.61613768  0.26666501     0.13900
H1593       H  0.21230792  0.62166655  0.20104519     0.11600
H1594       H  0.17823487  0.63515113  0.23179489     0.13600
C1595       C  0.86517055  0.24223694  0.26862784     0.19700
C1596       C  0.86388341  0.26399437  0.27184645    -0.18400
C1597       C  0.86328414  0.27788772  0.25489759    -0.10700
C1598       C  0.86323778  0.27015783  0.23442646     0.21900
C1599       C  0.86495239  0.24845433  0.23120572    -0.20000
C1600       C  0.86627615  0.23462538  0.24813207    -0.10900
C1601       C  0.85791837  0.28398048  0.21665594    -0.15000
C1602       C  0.86646671  0.30309654  0.21347001    -0.28900
C1603       C  0.86232087  0.22766078  0.28651735    -0.03100
C1604       C  0.87249441  0.20935492  0.28837584    -0.39700
H1605       H  0.86269410  0.27018361  0.28750258     0.13100
H1606       H  0.86145969  0.29451607  0.25778980     0.12700
H1607       H  0.86456505  0.24214617  0.21555916     0.12200
H1608       H  0.86678058  0.21790679  0.24518735     0.12400
H1609       H  0.84611421  0.27826162  0.20593408     0.15100
H1610       H  0.87948078  0.30839082  0.22290779     0.13900
H1611       H  0.85113070  0.23205565  0.29846278     0.11600
H1612       H  0.88497732  0.20555455  0.27758806     0.13600
C1613       C  0.74850137  0.27357711  0.15524415     0.19700
C1614       C  0.73411696  0.27194165  0.17167259    -0.18400
C1615       C  0.71972103  0.25547800  0.17246822    -0.10700
C1616       C  0.71924657  0.24013536  0.15685485     0.21900
C1617       C  0.73324788  0.24196075  0.13997062    -0.20000
C1618       C  0.74777981  0.25857706  0.13917005    -0.10900
C1619       C  0.70498936  0.22188000  0.15999301    -0.15000
C1620       C  0.69892293  0.20821922  0.14516252    -0.28900
C1621       C  0.76496559  0.29002370  0.15684262    -0.03100
C1622       C  0.77716038  0.29703521  0.14111169    -0.39700
H1623       H  0.73433297  0.28320796  0.18429116     0.13100
H1624       H  0.70917511  0.25447851  0.18566562     0.12700
H1625       H  0.73363367  0.23021024  0.12785157     0.12200
H1626       H  0.75890674  0.25907660  0.12647910     0.12400
H1627       H  0.69885610  0.21978147  0.17568028     0.15100
H1628       H  0.70383173  0.21029744  0.12909881     0.13900
H1629       H  0.76708471  0.29688060  0.17219036     0.11600
H1630       H  0.77484421  0.29151502  0.12531475     0.13600
C1631       C  0.72749423  0.37070725  0.27463251     0.19700
C1632       C  0.72495871  0.37876891  0.25443322    -0.18400
C1633       C  0.74158668  0.37880055  0.24020677    -0.10700
C1634       C  0.76093200  0.37039342  0.24591653     0.21900
C1635       C  0.76355035  0.36277919  0.26621428    -0.20000
C1636       C  0.74710376  0.36302097  0.28046583    -0.10900
C1637       C  0.77775404  0.36666471  0.23054779    -0.15000
C1638       C  0.78125539  0.37849748  0.21348657    -0.28900
C1639       C  0.70905363  0.36799373  0.28846087    -0.03100
C1640       C  0.71063277  0.36712194  0.30932411    -0.39700
H1641       H  0.70992047  0.38446235  0.24947361     0.13100
H1642       H  0.73893123  0.38429617  0.22448750     0.12700
H1643       H  0.77821097  0.35593064  0.27085379     0.12200
H1644       H  0.74952635  0.35602867  0.29562157     0.12400
H1645       H  0.78771681  0.35325806  0.23344332     0.15100
H1646       H  0.77256722  0.39281602  0.21093777     0.13900
H1647       H  0.69399028  0.36545980  0.28119043     0.11600
H1648       H  0.72536570  0.37086242  0.31674056     0.13600
C1649       C  0.88106939  0.75745344  0.72580010     0.19700
C1650       C  0.87280228  0.73710905  0.72355628    -0.18400
C1651       C  0.87128279  0.72351861  0.74064610    -0.10700
C1652       C  0.87825829  0.72997064  0.76039319     0.21900
C1653       C  0.88747627  0.74992328  0.76237489    -0.20000
C1654       C  0.88902627  0.76347874  0.74529486    -0.10900
C1655       C  0.87461241  0.71738529  0.77962206    -0.15000
C1656       C  0.86899799  0.69695657  0.77995705    -0.28900
C1657       C  0.88004353  0.77210600  0.70776030    -0.03100
C1658       C  0.88073578  0.79316878  0.70961349    -0.39700
H1659       H  0.86667673  0.73199784  0.70869499     0.13100
H1660       H  0.86381557  0.70843805  0.73837939     0.12700
H1661       H  0.89311827  0.75525380  0.77735219     0.12200
H1662       H  0.89622537  0.77868514  0.74761225     0.12400
H1663       H  0.87600811  0.72567832  0.79433567     0.15100
H1664       H  0.86823363  0.68790556  0.76570418     0.13900
H1665       H  0.87663023  0.76533188  0.69261830     0.11600
H1666       H  0.88323578  0.80045199  0.72464081     0.13600
C1667       C  0.74097275  0.78020169  0.86199345     0.19700
C1668       C  0.75880001  0.77783118  0.84959253    -0.18400
C1669       C  0.77224245  0.76111256  0.85280457    -0.10700
C1670       C  0.76814202  0.74622678  0.86855109     0.21900
C1671       C  0.75049100  0.74875715  0.88126650    -0.20000
C1672       C  0.73705297  0.76571039  0.87814701    -0.10900
C1673       C  0.78089514  0.72696353  0.87033243    -0.15000
C1674       C  0.80104091  0.72675727  0.86458830    -0.28900
C1675       C  0.72583947  0.79644535  0.85579367    -0.03100
C1676       C  0.71141474  0.80492999  0.86841743    -0.39700
H1677       H  0.76199530  0.78860663  0.83686486     0.13100
H1678       H  0.78522255  0.75934847  0.84216688     0.12700
H1679       H  0.74684152  0.73732423  0.89328066     0.12200
H1680       H  0.72316373  0.76680778  0.88767255     0.12400
H1681       H  0.77326076  0.71250647  0.87532545     0.15100
H1682       H  0.80891838  0.74140605  0.86066504     0.13900
H1683       H  0.72671576  0.80174228  0.83969466     0.11600
H1684       H  0.71095384  0.80114389  0.88490317     0.13600
C1685       C  0.73301585  0.62612895  0.73966515     0.19700
C1686       C  0.72844564  0.62993838  0.76072826    -0.18400
C1687       C  0.74425663  0.63055286  0.77568404    -0.10700
C1688       C  0.76517904  0.62722044  0.76992891     0.21900
C1689       C  0.76958878  0.62249020  0.74899772    -0.20000
C1690       C  0.75377157  0.62186844  0.73405723    -0.10900
C1691       C  0.78304616  0.62961081  0.78466250    -0.15000
C1692       C  0.78131159  0.63475646  0.80498907    -0.28900
C1693       C  0.71579310  0.62751013  0.72415941    -0.03100
C1694       C  0.71880856  0.63053573  0.70355129    -0.39700
H1695       H  0.71259883  0.63307831  0.76558189     0.13100
H1696       H  0.73985565  0.63411218  0.79151101     0.12700
H1697       H  0.78545935  0.61962764  0.74405617     0.12200
H1698       H  0.75801365  0.61816070  0.71818989     0.12400
H1699       H  0.79856973  0.62818123  0.77807228     0.15100
H1700       H  0.76619722  0.63646681  0.81223220     0.13900
H1701       H  0.69998008  0.62792921  0.73022598     0.11600
H1702       H  0.73443270  0.63127133  0.69714976     0.13600
C1703       C  0.08793090  0.70865822  0.06507095     0.19700
C1704       C  0.09438688  0.72419813  0.05089667    -0.18400
C1705       C  0.08075056  0.73158918  0.03566896    -0.10700
C1706       C  0.06014634  0.72385647  0.03464597     0.21900
C1707       C  0.05380206  0.70817529  0.04872671    -0.20000
C1708       C  0.06744083  0.70074276  0.06385907    -0.10900
C1709       C  0.04462242  0.73187136  0.01953588    -0.15000
C1710       C  0.04614757  0.75084857  0.01034979    -0.28900
C1711       C  0.10262102  0.70145637  0.08133246    -0.03100
C1712       C  0.10152327  0.68209505  0.08962804    -0.39700
H1713       H  0.11009544  0.73050919  0.05150217     0.13100
H1714       H  0.08652762  0.74321238  0.02474642     0.12700
H1715       H  0.03804136  0.70197135  0.04833992     0.12200
H1716       H  0.06166525  0.68920352  0.07489142     0.12400
H1717       H  0.03061603  0.72248962  0.01744441     0.15100
H1718       H  0.05935750  0.76092889  0.01387208     0.13900
H1719       H  0.11488519  0.71218789  0.08625144     0.11600
H1720       H  0.09008500  0.67088401  0.08392220     0.13600
C1721       C  0.95767396  0.73345526  0.93771324     0.19700
C1722       C  0.95420257  0.73609476  0.91632445    -0.18400
C1723       C  0.94086109  0.72252295  0.90554556    -0.10700
C1724       C  0.93023422  0.70613921  0.91602213     0.21900
C1725       C  0.93394779  0.70326392  0.93735662    -0.20000
C1726       C  0.94737878  0.71683030  0.94815321    -0.10900
C1727       C  0.91492324  0.69218327  0.90521584    -0.15000
C1728       C  0.90411586  0.69879541  0.88858929    -0.28900
C1729       C  0.97197457  0.74844623  0.94847881    -0.03100
C1730       C  0.98231855  0.74359338  0.96601274    -0.39700
H1731       H  0.96202030  0.74862068  0.90784116     0.13100
H1732       H  0.93908604  0.72488116  0.88896635     0.12700
H1733       H  0.92602162  0.69079686  0.94581769     0.12200
H1734       H  0.94923107  0.71448199  0.96472161     0.12400
H1735       H  0.91148911  0.67682081  0.91183324     0.15100
H1736       H  0.90653735  0.71466945  0.88285929     0.13900
H1737       H  0.97523062  0.76333112  0.94081085     0.11600
H1738       H  0.98049411  0.72797548  0.97258472     0.13600
C1739       C  0.13029347  0.23418538  0.73584811     0.19700
C1740       C  0.12852807  0.23261456  0.75758207    -0.18400
C1741       C  0.12646259  0.25068477  0.76975427    -0.10700
C1742       C  0.12682896  0.27062750  0.76035692     0.21900
C1743       C  0.12809332  0.27215744  0.73860635    -0.20000
C1744       C  0.12947143  0.25408068  0.72640261    -0.10900
C1745       C  0.12984041  0.28973149  0.77301662    -0.15000
C1746       C  0.11978075  0.29327352  0.79104676    -0.28900
C1747       C  0.13585975  0.21544679  0.72350715    -0.03100
C1748       C  0.12828643  0.21190811  0.70436228    -0.39700
H1749       H  0.12943462  0.21744516  0.76516824     0.13100
H1750       H  0.12607203  0.24914741  0.78655325     0.12700
H1751       H  0.12882691  0.28740571  0.73111908     0.12200
H1752       H  0.13130200  0.25575450  0.70970597     0.12400
H1753       H  0.14174241  0.30082180  0.76778323     0.15100
H1754       H  0.10676310  0.28335418  0.79582929     0.13900
H1755       H  0.14699703  0.20458452  0.73014929     0.11600
H1756       H  0.11590309  0.22167077  0.69830336     0.13600
C1757       C  0.24620240  0.22525808  0.86995959     0.19700
C1758       C  0.24947618  0.24486987  0.87952399    -0.18400
C1759       C  0.23495542  0.26101262  0.87698140    -0.10700
C1760       C  0.21703063  0.25774243  0.86480690     0.21900
C1761       C  0.21339971  0.23785819  0.85621972    -0.20000
C1762       C  0.22776262  0.22181526  0.85881164    -0.10900
C1763       C  0.20293824  0.27498490  0.85867013    -0.15000
C1764       C  0.20006996  0.29270243  0.86961136    -0.28900
C1765       C  0.26268097  0.20919200  0.86820055    -0.03100
C1766       C  0.27970526  0.20778643  0.88028625    -0.39700
H1767       H  0.26373320  0.24822518  0.88783699     0.13100
H1768       H  0.23842760  0.27629369  0.88348386     0.12700
H1769       H  0.19973753  0.23493525  0.84677843     0.12200
H1770       H  0.22489973  0.20690604  0.85120363     0.12400
H1771       H  0.19416547  0.27275483  0.84438200     0.15100
H1772       H  0.20734752  0.29478906  0.88469686     0.13900
H1773       H  0.26113707  0.19833134  0.85523309     0.11600
H1774       H  0.28136343  0.21720005  0.89425324     0.13600
C1775       C  0.26338466  0.35745226  0.72733759     0.19700
C1776       C  0.26025864  0.37436474  0.74106153    -0.18400
C1777       C  0.24389858  0.37369951  0.75570198    -0.10700
C1778       C  0.23045571  0.35610412  0.75682442     0.21900
C1779       C  0.23335436  0.33964183  0.74269199    -0.20000
C1780       C  0.24951640  0.34031960  0.72817270    -0.10900
C1781       C  0.21411931  0.35321397  0.77312248    -0.15000
C1782       C  0.20638676  0.36839493  0.78544773    -0.28900
C1783       C  0.28152520  0.35576758  0.71295570    -0.03100
C1784       C  0.29549003  0.37103809  0.70815933    -0.39700
H1785       H  0.27074155  0.38773630  0.74107838     0.13100
H1786       H  0.24237417  0.38658099  0.76651683     0.12700
H1787       H  0.22328941  0.32589994  0.74314036     0.12200
H1788       H  0.25147953  0.32704855  0.71783738     0.12400
H1789       H  0.20785333  0.33738789  0.77486114     0.15100
H1790       H  0.21145779  0.38458420  0.78364939     0.13900
H1791       H  0.28357533  0.34043448  0.70585603     0.11600
H1792       H  0.29371807  0.38689484  0.71396283     0.13600
C1793       C  0.90932439  0.57372145  0.80563231     0.19700
C1794       C  0.90625674  0.56352296  0.78651362    -0.18400
C1795       C  0.92098555  0.54948524  0.77875608    -0.10700
C1796       C  0.93939513  0.54548338  0.78984957     0.21900
C1797       C  0.94217558  0.55510770  0.80929393    -0.20000
C1798       C  0.92742119  0.56917903  0.81707907    -0.10900
C1799       C  0.95600202  0.53153463  0.78155383    -0.15000
C1800       C  0.95905407  0.52854628  0.76098288    -0.28900
C1801       C  0.89386418  0.58976291  0.81223857    -0.03100
C1802       C  0.89289871  0.59841041  0.83136294    -0.39700
H1803       H  0.89243776  0.56656333  0.77740489     0.13100
H1804       H  0.91781106  0.54180224  0.76409315     0.12700
H1805       H  0.95612441  0.55219278  0.81823921     0.12200
H1806       H  0.93068261  0.57681821  0.83171870     0.12400
H1807       H  0.96674794  0.52483643  0.79267030     0.15100
H1808       H  0.94925138  0.53689547  0.75007459     0.13900
H1809       H  0.88286241  0.59495220  0.80052499     0.11600
H1810       H  0.90317026  0.59322499  0.84364897     0.13600
C1811       C  0.06852777  0.41836171  0.79324398     0.19700
C1812       C  0.04695369  0.41974057  0.79655386    -0.18400
C1813       C  0.03522001  0.43506797  0.78632150    -0.10700
C1814       C  0.04488195  0.44929321  0.77240548     0.21900
C1815       C  0.06635396  0.44749942  0.76871478    -0.20000
C1816       C  0.07804239  0.43225841  0.77893902    -0.10900
C1817       C  0.03321039  0.46551936  0.76058610    -0.15000
C1818       C  0.01407792  0.47246687  0.76576344    -0.28900
C1819       C  0.08063902  0.40195495  0.80436562    -0.03100
C1820       C  0.10103796  0.40433683  0.80855761    -0.39700
H1821       H  0.03916830  0.40898223  0.80717387     0.13100
H1822       H  0.01860942  0.43539152  0.78910156     0.12700
H1823       H  0.07415927  0.45792036  0.75777434     0.12200
H1824       H  0.09445076  0.43119414  0.77523577     0.12400
H1825       H  0.04125888  0.47257957  0.74739379     0.15100
H1826       H  0.00670910  0.46695394  0.78001436     0.13900
H1827       H  0.07250381  0.38785924  0.80959415     0.11600
H1828       H  0.10895023  0.41887697  0.80436648     0.13600
C1829       C  0.91682901  0.30676739  0.08946879     0.19700
C1830       C  0.93748642  0.31304500  0.08552290    -0.18400
C1831       C  0.94963314  0.30247348  0.07075961    -0.10700
C1832       C  0.94135932  0.28520800  0.05979658     0.21900
C1833       C  0.92087824  0.27865207  0.06415384    -0.20000
C1834       C  0.90872250  0.28929132  0.07874854    -0.10900
C1835       C  0.95376104  0.27296139  0.04449424    -0.15000
C1836       C  0.97034246  0.28071985  0.03396438    -0.28900
C1837       C  0.90425887  0.31818337  0.10527962    -0.03100
C1838       C  0.88342575  0.31969413  0.10389268    -0.39700
H1839       H  0.94420801  0.32622715  0.09382387     0.13100
H1840       H  0.96556925  0.30759188  0.06834929     0.12700
H1841       H  0.91423342  0.26518905  0.05623092     0.12200
H1842       H  0.89313382  0.28348601  0.08190130     0.12400
H1843       H  0.94827176  0.25718437  0.04105312     0.15100
H1844       H  0.97468293  0.29711434  0.03578935     0.13900
H1845       H  0.91235844  0.32598440  0.11795201     0.11600
H1846       H  0.87547552  0.31309590  0.09049605     0.13600
C1847       C  0.06698062  0.30727964  0.91376648     0.19700
C1848       C  0.04561759  0.31093642  0.91654491    -0.18400
C1849       C  0.03423505  0.30003977  0.93190084    -0.10700
C1850       C  0.04401187  0.28502084  0.94461196     0.21900
C1851       C  0.06523126  0.28100994  0.94139398    -0.20000
C1852       C  0.07660904  0.29202056  0.92625006    -0.10900
C1853       C  0.03262734  0.27266374  0.96085640    -0.15000
C1854       C  0.01525321  0.27936463  0.97054792    -0.28900
C1855       C  0.07880148  0.31867572  0.89715315    -0.03100
C1856       C  0.09915282  0.32342492  0.89920317    -0.39700
H1857       H  0.03774868  0.32230804  0.90686697     0.13100
H1858       H  0.01775789  0.30311125  0.93343693     0.12700
H1859       H  0.07308469  0.26930130  0.95068666     0.12200
H1860       H  0.09285926  0.28819085  0.92404531     0.12400
H1861       H  0.03968800  0.25810516  0.96590738     0.15100
H1862       H  0.00931813  0.29484255  0.96691472     0.13900
H1863       H  0.07065472  0.32313653  0.88304759     0.11600
H1864       H  0.10688076  0.32000339  0.91382153     0.13600
C1865       C  0.05962204  0.59243921  0.20278004     0.19700
C1866       C  0.04857158  0.59542574  0.22139836    -0.18400
C1867       C  0.03370482  0.58068792  0.22818387    -0.10700
C1868       C  0.02982648  0.56220035  0.21667139     0.21900
C1869       C  0.04079407  0.55936358  0.19792742    -0.20000
C1870       C  0.05554057  0.57418629  0.19108112    -0.10900
C1871       C  0.01508198  0.54522632  0.22372048    -0.15000
C1872       C  0.00678744  0.54421398  0.24303421    -0.28900
C1873       C  0.07588209  0.60813261  0.19651792    -0.03100
C1874       C  0.08212411  0.61081500  0.17665970    -0.39700
H1875       H  0.05139252  0.60930615  0.23072423     0.13100
H1876       H  0.02543724  0.58410298  0.24242528     0.12700
H1877       H  0.03827372  0.54535650  0.18870619     0.12200
H1878       H  0.06410746  0.57089563  0.17694185     0.12400
H1879       H  0.01213908  0.53248443  0.21293761     0.15100
H1880       H  0.01061745  0.55641612  0.25409297     0.13900
H1881       H  0.08282849  0.61779823  0.20860643     0.11600
H1882       H  0.07465937  0.60188369  0.16436631     0.13600
C1883       C  0.91822856  0.42921791  0.19029714     0.19700
C1884       C  0.93635860  0.42439523  0.20141208    -0.18400
C1885       C  0.94874791  0.44034664  0.20998347    -0.10700
C1886       C  0.94336135  0.46156739  0.20744995     0.21900
C1887       C  0.92592522  0.46645642  0.19532876    -0.20000
C1888       C  0.91341773  0.45049596  0.18690492    -0.10900
C1889       C  0.95532141  0.47883006  0.21764144    -0.15000
C1890       C  0.96402470  0.47643054  0.23653111    -0.28900
C1891       C  0.90478186  0.41168517  0.18259110    -0.03100
C1892       C  0.88422322  0.41371388  0.17905460    -0.39700
H1893       H  0.94069441  0.40818788  0.20390584     0.13100
H1894       H  0.96249426  0.43602594  0.21863667     0.12700
H1895       H  0.92164392  0.48267856  0.19283320     0.12200
H1896       H  0.90006477  0.45493382  0.17773870     0.12400
H1897       H  0.95509121  0.49430669  0.21051016     0.15100
H1898       H  0.96224496  0.46145179  0.24449526     0.13900
H1899       H  0.91178336  0.39629158  0.18101052     0.11600
H1900       H  0.87676654  0.42871328  0.18162347     0.13600
C1901       C  0.19221955  0.56619451  0.09132290     0.19700
C1902       C  0.20952315  0.55392706  0.09633694    -0.18400
C1903       C  0.21660512  0.53846281  0.08267600    -0.10700
C1904       C  0.20668747  0.53518454  0.06339691     0.21900
C1905       C  0.18923237  0.54733867  0.05852361    -0.20000
C1906       C  0.18210492  0.56271611  0.07222549    -0.10900
C1907       C  0.21400274  0.51964660  0.04773232    -0.15000
C1908       C  0.23258425  0.51000781  0.04849643    -0.28900
C1909       C  0.18585484  0.58308776  0.10588774    -0.03100
C1910       C  0.16668220  0.59141496  0.10613850    -0.39700
H1911       H  0.21759728  0.55629834  0.11093490     0.13100
H1912       H  0.22976768  0.52923174  0.08748022     0.12700
H1913       H  0.18127941  0.54522531  0.04382075     0.12200
H1914       H  0.16907848  0.57218951  0.06743527     0.12400
H1915       H  0.20409795  0.51715953  0.03430758     0.15100
H1916       H  0.24327648  0.51354120  0.06102560     0.13900
H1917       H  0.19737581  0.58874515  0.11693167     0.11600
H1918       H  0.15463291  0.58531275  0.09597079     0.13600
C1919       C  0.21297734  0.44544640  0.95325622     0.19700
C1920       C  0.21542144  0.44818693  0.93170578    -0.18400
C1921       C  0.20489721  0.43515296  0.91771721    -0.10700
C1922       C  0.19170784  0.41895551  0.92505262     0.21900
C1923       C  0.18908589  0.41638507  0.94662705    -0.20000
C1924       C  0.19954609  0.42949327  0.96061563    -0.10900
C1925       C  0.18182782  0.40341401  0.91087996    -0.15000
C1926       C  0.17900246  0.40666415  0.89036989    -0.28900
C1927       C  0.22612687  0.45815079  0.96747871    -0.03100
C1928       C  0.22123564  0.46182328  0.98753273    -0.39700
H1929       H  0.22590051  0.46017688  0.92566183     0.13100
H1930       H  0.20788793  0.43734864  0.90127651     0.12700
H1931       H  0.17924958  0.40387197  0.95270071     0.12200
H1932       H  0.19773061  0.42648541  0.97711364     0.12400
H1933       H  0.17682882  0.38854190  0.91766298     0.15100
H1934       H  0.18286845  0.42170843  0.88335836     0.13900
H1935       H  0.24035740  0.46493175  0.96104873     0.11600
H1936       H  0.20612329  0.45700896  0.99360891     0.13600
C1937       C  0.78833703  0.60333330  0.93445647     0.19700
C1938       C  0.79766593  0.58422734  0.94014889    -0.18400
C1939       C  0.78738596  0.57013987  0.95366618    -0.10700
C1940       C  0.76755082  0.57488738  0.96183026     0.21900
C1941       C  0.75863533  0.59423010  0.95651049    -0.20000
C1942       C  0.76880776  0.60816956  0.94296385    -0.10900
C1943       C  0.75490763  0.56008476  0.97498143    -0.15000
C1944       C  0.76095893  0.54095587  0.98167048    -0.28900
C1945       C  0.79740058  0.61778607  0.91842100    -0.03100
C1946       C  0.81767506  0.61845404  0.91285565    -0.39700
H1947       H  0.81249234  0.57967676  0.93358618     0.13100
H1948       H  0.79487652  0.55543371  0.95713020     0.12700
H1949       H  0.74342005  0.59841956  0.96248107     0.12200
H1950       H  0.76117840  0.62268814  0.93882247     0.12400
H1951       H  0.73947712  0.56540069  0.97936345     0.15100
H1952       H  0.77672172  0.53567922  0.97888484     0.13900
H1953       H  0.78668859  0.62837103  0.91072210     0.11600
H1954       H  0.82890636  0.60883235  0.92096920     0.13600
C1955       C  0.79149559  0.43567065  0.08570067     0.19700
C1956       C  0.77718638  0.45152458  0.09043847    -0.18400
C1957       C  0.76977100  0.46492150  0.07486556    -0.10700
C1958       C  0.77670491  0.46292243  0.05413605     0.21900
C1959       C  0.79151768  0.44749892  0.04950958    -0.20000
C1960       C  0.79875599  0.43392662  0.06505079    -0.10900
C1961       C  0.76928604  0.47707830  0.03721448    -0.15000
C1962       C  0.75014532  0.48564740  0.03728561    -0.28900
C1963       C  0.79900992  0.42178232  0.10278406    -0.03100
C1964       C  0.80563656  0.40200799  0.09965962    -0.39700
H1965       H  0.77161007  0.45347394  0.10625892     0.13100
H1966       H  0.75891197  0.47706473  0.07920610     0.12700
H1967       H  0.79740217  0.44584348  0.03376615     0.12200
H1968       H  0.81030571  0.42238030  0.06090089     0.12400
H1969       H  0.77943747  0.47950399  0.02383857     0.15100
H1970       H  0.73936727  0.48144870  0.04972477     0.13900
H1971       H  0.79818505  0.42775724  0.11860530     0.11600
H1972       H  0.80533738  0.39538066  0.08410653     0.13600
C1973       C  0.83836327  0.02094775  0.99731706     0.19700
C1974       C  0.85119764  0.02031428  0.01492877    -0.18400
C1975       C  0.87286495  0.01984187  0.01284334    -0.10700
C1976       C  0.88224098  0.02005665  0.99298715     0.21900
C1977       C  0.86944003  0.02125537  0.97536599    -0.20000
C1978       C  0.84772883  0.02163666  0.97745220    -0.10900
C1979       C  0.90525209  0.01981675  0.99014141    -0.15000
C1980       C  0.91831412  0.01161285  0.00428116    -0.28900
C1981       C  0.81540324  0.02162714  0.00043374    -0.03100
C1982       C  0.80150871  0.01544636  0.98597663    -0.39700
H1983       H  0.84442080  0.02015576  0.03041245     0.13100
H1984       H  0.88215137  0.01974006  0.02684904     0.12700
H1985       H  0.87626853  0.02183359  0.95991269     0.12200
H1986       H  0.83843452  0.02287091  0.96350687     0.12400
H1987       H  0.91157600  0.02602268  0.97563180     0.15100
H1988       H  0.91218415  0.00427485  0.01831286     0.13900
H1989       H  0.80985216  0.02626772  0.01572374     0.11600
H1990       H  0.80703081  0.00886592  0.97140846     0.13600
C1991       C  0.00295786  0.89518475  0.98612983     0.19700
C1992       C  0.01909924  0.88359290  0.97705383    -0.18400
C1993       C  0.01750531  0.86178904  0.97514832    -0.10700
C1994       C  0.99963126  0.85098018  0.98230823     0.21900
C1995       C  0.98318749  0.86261661  0.99079617    -0.20000
C1996       C  0.98481214  0.88447860  0.99277035    -0.10900
C1997       C  0.99778328  0.82766304  0.98122501    -0.15000
C1998       C  0.01455687  0.81517109  0.98215256    -0.28900
C1999       C  0.00535622  0.91841827  0.98736868    -0.03100
C2000       C  0.99447128  0.93072101  0.00046025    -0.39700
H2001       H  0.03306819  0.89145086  0.97142446     0.13100
H2002       H  0.03021735  0.85353169  0.96780582     0.12700
H2003       H  0.96912809  0.85473462  0.99614655     0.12200
H2004       H  0.97170331  0.89287461  0.99917117     0.12400
H2005       H  0.98230155  0.82065963  0.98150428     0.15100
H2006       H  0.02985012  0.82230594  0.98401187     0.13900
H2007       H  0.01693069  0.92567349  0.97718360     0.11600
H2008       H  0.98339670  0.92384852  0.01136792     0.13600
C2009       C  0.99900483  0.01644119  0.83698190     0.19700
C2010       C  0.01545143  0.01189909  0.85050098    -0.18400
C2011       C  0.01231563  0.01153702  0.87202177    -0.10700
C2012       C  0.99254473  0.01570878  0.88055421     0.21900
C2013       C  0.97617123  0.02067901  0.86708885    -0.20000
C2014       C  0.97930397  0.02102906  0.84551563    -0.10900
C2015       C  0.98889640  0.01613156  0.90341041    -0.15000
C2016       C  0.00039511  0.00492701  0.91679599    -0.28900
C2017       C  0.00323795  0.01656960  0.81420980    -0.03100
C2018       C  0.98829472  0.01410387  0.79980138    -0.39700
H2019       H  0.03083722  0.00861836  0.84438513     0.13100
H2020       H  0.02556710  0.00847783  0.88187725     0.12700
H2021       H  0.96091222  0.02434395  0.87329190     0.12200
H2022       H  0.96635571  0.02530925  0.83572807     0.12400
H2023       H  0.97642698  0.02591176  0.90934207     0.15100
H2024       H  0.01216387  0.99429059  0.91095539     0.13900
H2025       H  0.01942890  0.01716357  0.80926546     0.11600
H2026       H  0.97228992  0.01150920  0.80471581     0.13600
C2027       C  0.99992851  0.17459093  0.99517128     0.19700
C2028       C  0.99616107  0.16171126  0.97785046    -0.18400
C2029       C  0.99666688  0.13981404  0.97965579    -0.10700
C2030       C  0.00109143  0.13025407  0.99890504     0.21900
C2031       C  0.00521804  0.14312642  0.01614186    -0.20000
C2032       C  0.00461690  0.16502148  0.01436245    -0.10900
C2033       C  0.00259968  0.10705098  0.00137222    -0.15000
C2034       C  0.99283513  0.09318898  0.98887294    -0.28900
C2035       C  0.99957061  0.19783739  0.99239254    -0.03100
C2036       C  0.99620707  0.21138555  0.00813562    -0.39700
H2037       H  0.99283827  0.16862985  0.96281337     0.13100
H2038       H  0.99409081  0.13051826  0.96581981     0.12700
H2039       H  0.00900535  0.13620264  0.03106331     0.12200
H2040       H  0.00832017  0.17430618  0.02794696     0.12400
H2041       H  0.01169231  0.10118344  0.01434392     0.15100
H2042       H  0.98269749  0.09871119  0.97658846     0.13900
H2043       H  0.00101767  0.20382022  0.97661090     0.11600
H2044       H  0.99280145  0.20525342  0.02356894     0.13600
C2045       C  0.15762712  0.00249145  0.98002784     0.19700
C2046       C  0.14650481  0.02133988  0.98055466    -0.18400
C2047       C  0.12475489  0.02114488  0.98154801    -0.10700
C2048       C  0.11366649  0.00199468  0.98191311     0.21900
C2049       C  0.12475704  0.98316568  0.98057080    -0.20000
C2050       C  0.14651340  0.98335762  0.97969684    -0.10900
C2051       C  0.09058970  0.00104076  0.98317809    -0.15000
C2052       C  0.07904038  0.01617172  0.99199972    -0.28900
C2053       C  0.18073314  0.00342717  0.97947043    -0.03100
C2054       C  0.19277659  0.98795317  0.98690971    -0.39700
H2055       H  0.15469126  0.03628448  0.98042190     0.13100
H2056       H  0.11673685  0.03600603  0.98174738     0.12700
H2057       H  0.11655661  0.96822959  0.98040996     0.12200
H2058       H  0.15450574  0.96852648  0.97850586     0.12400
H2059       H  0.08291988  0.98691721  0.97746024     0.15100
H2060       H  0.08648524  0.02987899  0.99880178     0.13900
H2061       H  0.18794118  0.01796277  0.97413827     0.11600
H2062       H  0.18549662  0.97432868  0.99417733     0.13600
C2063       C  0.01320068  0.00395864  0.15651276     0.19700
C2064       C  0.02920268  0.00811384  0.14208584    -0.18400
C2065       C  0.02509283  0.00840910  0.12069228    -0.10700
C2066       C  0.00486530  0.00427527  0.11328494     0.21900
C2067       C  0.98904030  0.99940136  0.12767949    -0.20000
C2068       C  0.99309096  0.99935316  0.14906721    -0.10900
C2069       C  0.99994362  0.00410895  0.09067812    -0.15000
C2070       C  0.01009149  0.01621053  0.07666433    -0.28900
C2071       C  0.01799002  0.00418216  0.17915683    -0.03100
C2072       C  0.00386718  0.00984455  0.19360474    -0.39700
H2073       H  0.04488962  0.01136499  0.14740257     0.13100
H2074       H  0.03784491  0.01150749  0.11001378     0.12700
H2075       H  0.97343332  0.99577836  0.12235648     0.12200
H2076       H  0.98052494  0.99538589  0.15969358     0.12400
H2077       H  0.98708115  0.99422803  0.08554538     0.15100
H2078       H  0.02215181  0.02704578  0.08180042     0.13900
H2079       H  0.03389341  0.00104909  0.18386053     0.11600
H2080       H  0.98862892  0.01504726  0.18856554     0.13600
C2081       C  0.00670679  0.61875409  0.49486899     0.19700
C2082       C  0.99118293  0.63280540  0.48867503    -0.18400
C2083       C  0.99511662  0.65444895  0.48811347    -0.10700
C2084       C  0.01481099  0.66252746  0.49360012     0.21900
C2085       C  0.03043725  0.64847334  0.49948687    -0.20000
C2086       C  0.02646233  0.62684567  0.50020139    -0.10900
C2087       C  0.01984063  0.68535260  0.49243210    -0.15000
C2088       C  0.00545442  0.70038976  0.49503807    -0.28900
C2089       C  0.00210614  0.59578845  0.49446640    -0.03100
C2090       C  0.01257254  0.58167210  0.50591032    -0.39700
H2091       H  0.97595620  0.62699811  0.48415461     0.13100
H2092       H  0.98287104  0.66471794  0.48285647     0.12700
H2093       H  0.04582435  0.65425320  0.50348614     0.12200
H2094       H  0.03909611  0.61655915  0.50436588     0.12400
H2095       H  0.03608265  0.68986883  0.49043793     0.15100
H2096       H  0.98960219  0.69590163  0.49914041     0.13900
H2097       H  0.98946277  0.59037376  0.48458416     0.11600
H2098       H  0.02452114  0.58691659  0.51665442     0.13600
C2099       C  0.88610839  0.51885498  0.49604097     0.19700
C2100       C  0.87268583  0.51999079  0.47887882    -0.18400
C2101       C  0.85100362  0.51912060  0.48170783    -0.10700
C2102       C  0.84235018  0.51738360  0.50185768     0.21900
C2103       C  0.85580216  0.51727701  0.51900760    -0.20000
C2104       C  0.87739379  0.51791731  0.51617345    -0.10900
C2105       C  0.81949664  0.51571987  0.50576048    -0.15000
C2106       C  0.80601265  0.50721091  0.49207936    -0.28900
C2107       C  0.90910221  0.51860085  0.49275592    -0.03100
C2108       C  0.92161761  0.50739564  0.50524677    -0.39700
H2109       H  0.87899698  0.52109240  0.46323624     0.13100
H2110       H  0.84111722  0.51994289  0.46813722     0.12700
H2111       H  0.84958371  0.51630973  0.53469740     0.12200
H2112       H  0.88724379  0.51777274  0.52980587     0.12400
H2113       H  0.81396541  0.51986306  0.52120425     0.15100
H2114       H  0.81190491  0.50118187  0.47740988     0.13900
H2115       H  0.91565940  0.52676315  0.47933765     0.11600
H2116       H  0.91472514  0.49794156  0.51762326     0.13600
C2117       C  0.00730480  0.49753692  0.66174538     0.19700
C2118       C  0.00450156  0.48023583  0.64855519    -0.18400
C2119       C  0.00605209  0.48255114  0.62695274    -0.10700
C2120       C  0.01060948  0.50228692  0.61804205     0.21900
C2121       C  0.01415733  0.51944779  0.63126108    -0.20000
C2122       C  0.01243645  0.51716325  0.65289713    -0.10900
C2123       C  0.01217856  0.50529970  0.59510269    -0.15000
C2124       C  0.00120348  0.49351626  0.58162452    -0.28900
C2125       C  0.00514989  0.49439309  0.68460131    -0.03100
C2126       C  0.99899326  0.50966408  0.69766446    -0.39700
H2127       H  0.00089270  0.46488464  0.65498681     0.13100
H2128       H  0.00397745  0.46877701  0.61733323     0.12700
H2129       H  0.01805002  0.53472048  0.62481146     0.12200
H2130       H  0.01540290  0.53070488  0.66261524     0.12400
H2131       H  0.02185555  0.51810010  0.58923017     0.15100
H2132       H  0.99041563  0.48165310  0.58745990     0.13900
H2133       H  0.00716504  0.47857516  0.69054940     0.11600
H2134       H  0.99491107  0.52490408  0.69135520     0.13600
C2135       C  0.16381157  0.49624776  0.50675576     0.19700
C2136       C  0.15014156  0.47906420  0.50468299    -0.18400
C2137       C  0.12854827  0.48180462  0.50529412    -0.10700
C2138       C  0.12002545  0.50188486  0.50812973     0.21900
C2139       C  0.13366239  0.51905219  0.51060128    -0.20000
C2140       C  0.15531421  0.51633270  0.50982861    -0.10900
C2141       C  0.09707291  0.50519909  0.50937379    -0.15000
C2142       C  0.08325854  0.49279476  0.49941657    -0.28900
C2143       C  0.18669439  0.49230467  0.50664499    -0.03100
C2144       C  0.20126511  0.50704621  0.50216105    -0.39700
H2145       H  0.15620462  0.46338015  0.50264442     0.13100
H2146       H  0.11861606  0.46806505  0.50403886     0.12700
H2147       H  0.12753359  0.53463690  0.51312272     0.12200
H2148       H  0.16525740  0.52990729  0.51214717     0.12400
H2149       H  0.09146178  0.51863283  0.51809256     0.15100
H2150       H  0.08883641  0.48027441  0.48945741     0.13900
H2151       H  0.19158509  0.47628382  0.50946002     0.11600
H2152       H  0.19636142  0.52259537  0.49742549     0.13600
C2153       C  0.00498813  0.38359256  0.48692483     0.19700
C2154       C  0.02263345  0.37092193  0.48459782    -0.18400
C2155       C  0.02084659  0.34898021  0.48520358    -0.10700
C2156       C  0.00124781  0.33924235  0.48803163     0.21900
C2157       C  0.98356303  0.35194938  0.48966400    -0.20000
C2158       C  0.98535960  0.37382498  0.48913828    -0.10900
C2159       C  0.99832569  0.31601586  0.48880053    -0.15000
C2160       C  0.01355052  0.30231615  0.49340261    -0.28900
C2161       C  0.00747474  0.40686672  0.48666703    -0.03100
C2162       C  0.99420871  0.41973451  0.49660157    -0.39700
H2163       H  0.03789181  0.37803392  0.48250991     0.13100
H2164       H  0.03479577  0.33981017  0.48316671     0.12700
H2165       H  0.96823382  0.34491290  0.49146296     0.12200
H2166       H  0.97128365  0.38297796  0.49017956     0.12400
H2167       H  0.98255352  0.31015707  0.48671929     0.15100
H2168       H  0.02891653  0.30820032  0.49742536     0.13900
H2169       H  0.02118567  0.41350430  0.47905022     0.11600
H2170       H  0.98127656  0.41318106  0.50548945     0.13600
C2171       C  0.98883540  0.51483960  0.38610724     0.19700
C2172       C  0.97052384  0.51296375  0.37438305    -0.18400
C2173       C  0.97137034  0.51293772  0.35257051    -0.10700
C2174       C  0.99061241  0.51509082  0.34212458     0.21900
C2175       C  0.00879837  0.51759910  0.35392574    -0.20000
C2176       C  0.00796999  0.51738654  0.37565074    -0.10900
C2177       C  0.99243106  0.51586760  0.31905982    -0.15000
C2178       C  0.97830167  0.50758939  0.30589501    -0.28900
C2179       C  0.98771184  0.51444942  0.40919816    -0.03100
C2180       C  0.00263722  0.50546577  0.42072913    -0.39700
H2181       H  0.95557254  0.51129335  0.38212688     0.13100
H2182       H  0.95693945  0.51165153  0.34402629     0.12700
H2183       H  0.02376284  0.51967595  0.34629248     0.12200
H2184       H  0.02229587  0.51953197  0.38424289     0.12400
H2185       H  0.00664056  0.52275557  0.31273274     0.15100
H2186       H  0.96507369  0.49880101  0.31204112     0.13900
H2187       H  0.97389548  0.52063085  0.41677039     0.11600
H2188       H  0.01555033  0.49768759  0.41305125     0.13600
C2189       C  0.50073299  0.86395882  0.49251104     0.19700
C2190       C  0.48320761  0.85107728  0.48953116    -0.18400
C2191       C  0.48470559  0.82923334  0.49129598    -0.10700
C2192       C  0.50401167  0.81972736  0.49560001     0.21900
C2193       C  0.52162004  0.83271004  0.49801460    -0.20000
C2194       C  0.52005115  0.85453125  0.49645717    -0.10900
C2195       C  0.50661189  0.79656001  0.49802457    -0.15000
C2196       C  0.49194610  0.78225444  0.49287014    -0.28900
C2197       C  0.49846518  0.88714887  0.49166413    -0.03100
C2198       C  0.50983633  0.89994395  0.50384779    -0.39700
H2199       H  0.46817191  0.85797828  0.48641723     0.13100
H2200       H  0.47055024  0.82014114  0.48964939     0.12700
H2201       H  0.53670595  0.82594438  0.50117602     0.12200
H2202       H  0.53402180  0.86397683  0.49823024     0.12400
H2203       H  0.52160355  0.79119923  0.50352084     0.15100
H2204       H  0.47749848  0.78748612  0.48605222     0.13900
H2205       H  0.48644438  0.89369779  0.48178307     0.11600
H2206       H  0.52082488  0.89323968  0.51476223     0.13600
C2207       C  0.62248673  0.99666125  0.50936320     0.19700
C2208       C  0.63505300  0.00478037  0.49326571    -0.18400
C2209       C  0.65664709  0.00657843  0.49562286    -0.10700
C2210       C  0.66621959  0.00039432  0.51433828     0.21900
C2211       C  0.65354860  0.99257012  0.53054503    -0.20000
C2212       C  0.63197216  0.99073101  0.52815395    -0.10900
C2213       C  0.68916909  0.00158408  0.51784000    -0.15000
C2214       C  0.70344568  0.00744331  0.50339872    -0.28900
C2215       C  0.59956734  0.99543791  0.50616850    -0.03100
C2216       C  0.58663784  0.98292854  0.51730484    -0.39700
H2217       H  0.62812763  0.00968451  0.47870898     0.13100
H2218       H  0.66551411  0.01287859  0.48269727     0.12700
H2219       H  0.66037689  0.98783785  0.54520382     0.12200
H2220       H  0.62285047  0.98503048  0.54121589     0.12400
H2221       H  0.69449174  0.99732472  0.53328247     0.15100
H2222       H  0.69856308  0.01276866  0.48818330     0.13900
H2223       H  0.59314379  0.00493845  0.49371135     0.11600
H2224       H  0.59271547  0.97252875  0.52916472     0.13600
C2225       C  0.48799110  0.99178106  0.66454699     0.19700
C2226       C  0.48695900  0.97308395  0.65305259    -0.18400
C2227       C  0.48652891  0.97349075  0.63130605    -0.10700
C2228       C  0.48730883  0.99269165  0.62047095     0.21900
C2229       C  0.48784035  0.01143954  0.63189683    -0.20000
C2230       C  0.48836998  0.01104481  0.65370545    -0.10900
C2231       C  0.48778529  0.99357624  0.59732643    -0.15000
C2232       C  0.49687208  0.97858112  0.58579033    -0.28900
C2233       C  0.48943711  0.99025252  0.68764834    -0.03100
C2234       C  0.48577729  0.00624284  0.70084595    -0.39700
H2235       H  0.48653819  0.95803317  0.66094320     0.13100
H2236       H  0.48547685  0.95873480  0.62304680     0.12700
H2237       H  0.48841943  0.02643038  0.62390368     0.12200
H2238       H  0.48958956  0.02583119  0.66184368     0.12400
H2239       H  0.48186460  0.00754208  0.58970404     0.15100
H2240       H  0.50432331  0.96542472  0.59342810     0.13900
H2241       H  0.49287955  0.97488789  0.69404833     0.11600
H2242       H  0.48044535  0.02117220  0.69483685     0.13600
C2243       C  0.50323548  0.14278584  0.51337749     0.19700
C2244       C  0.50174664  0.13024209  0.49549501    -0.18400
C2245       C  0.49972401  0.10845376  0.49710684    -0.10700
C2246       C  0.49925984  0.09860488  0.51671762     0.21900
C2247       C  0.50034400  0.11106002  0.53466700    -0.20000
C2248       C  0.50255035  0.13291903  0.53306922    -0.10900
C2249       C  0.49776577  0.07538928  0.51864034    -0.15000
C2250       C  0.50745351  0.06272266  0.50504431    -0.28900
C2251       C  0.50601964  0.16588927  0.51056104    -0.03100
C2252       C  0.50294076  0.18015560  0.52571085    -0.39700
H2253       H  0.50214351  0.13733720  0.48014696     0.13100
H2254       H  0.49837826  0.09934138  0.48295971     0.12700
H2255       H  0.50002784  0.10380765  0.54994397     0.12200
H2256       H  0.50411963  0.14181852  0.54728709     0.12400
H2257       H  0.48956042  0.06867108  0.53194638     0.15100
H2258       H  0.51708869  0.06958013  0.49280428     0.13900
H2259       H  0.50986573  0.17131857  0.49497464     0.11600
H2260       H  0.49739932  0.17497865  0.54086087     0.13600
C2261       C  0.38955120  0.99266075  0.50030020     0.19700
C2262       C  0.37627222  0.00083802  0.51563434    -0.18400
C2263       C  0.35470220  0.00166914  0.51256675    -0.10700
C2264       C  0.34573335  0.99448462  0.49382634     0.21900
C2265       C  0.35908777  0.98637463  0.47845656    -0.20000
C2266       C  0.38066776  0.98549522  0.48156955    -0.10900
C2267       C  0.32281817  0.99536459  0.48934481    -0.15000
C2268       C  0.30839259  0.00329772  0.50247455    -0.28900
C2269       C  0.41250202  0.99261574  0.50424323    -0.03100
C2270       C  0.42618361  0.98061219  0.49373999    -0.39700
H2271       H  0.38262617  0.00659815  0.53016327     0.13100
H2272       H  0.34541481  0.00805810  0.52503146     0.12700
H2273       H  0.35281549  0.98083933  0.46380912     0.12200
H2274       H  0.39025628  0.97960458  0.46903998     0.12400
H2275       H  0.31785683  0.98974728  0.47421487     0.15100
H2276       H  0.31327895  0.00964466  0.51729277     0.13900
H2277       H  0.41830039  0.00260002  0.51667421     0.11600
H2278       H  0.42070399  0.96986768  0.48185610     0.13600
C2279       C  0.51020569  0.97556781  0.38865269     0.19700
C2280       C  0.49353988  0.96981844  0.37577630    -0.18400
C2281       C  0.49484577  0.97247105  0.35419951    -0.10700
C2282       C  0.51311906  0.98059459  0.34487021     0.21900
C2283       C  0.52988335  0.98620629  0.35773444    -0.20000
C2284       C  0.52854755  0.98360860  0.37936876    -0.10900
C2285       C  0.51493638  0.98402720  0.32194780    -0.15000
C2286       C  0.50335101  0.97331789  0.30801975    -0.28900
C2287       C  0.50767512  0.97301362  0.41158664    -0.03100
C2288       C  0.51869362  0.98411436  0.42558539    -0.39700
H2289       H  0.47922350  0.96365983  0.38248789     0.13100
H2290       H  0.48127339  0.96858699  0.34503774     0.12700
H2291       H  0.54413152  0.99250470  0.35100293     0.12200
H2292       H  0.54198779  0.98771878  0.38863807     0.12400
H2293       H  0.52667305  0.99513761  0.31656243     0.15100
H2294       H  0.49300586  0.96097758  0.31363501     0.13900
H2295       H  0.49540882  0.96250886  0.41712006     0.11600
H2296       H  0.53033990  0.99542736  0.42040608     0.13600
C2297       C  0.50111633  0.61221246  0.99123412     0.19700
C2298       C  0.51795425  0.62470858  0.98449529    -0.18400
C2299       C  0.51637921  0.64663771  0.98394951    -0.10700
C2300       C  0.49767571  0.65653417  0.98978449     0.21900
C2301       C  0.48080907  0.64395159  0.99629928    -0.20000
C2302       C  0.48241353  0.62210453  0.99690219    -0.10900
C2303       C  0.49500765  0.67977872  0.98977346    -0.15000
C2304       C  0.50773374  0.69338396  0.97967447    -0.28900
C2305       C  0.50328697  0.58894956  0.99186839    -0.03100
C2306       C  0.49227644  0.57687148  0.00523351    -0.39700
H2307       H  0.53250550  0.61749197  0.97998394     0.13100
H2308       H  0.52997565  0.65561646  0.97928495     0.12700
H2309       H  0.46619799  0.65105441  0.00080875     0.12200
H2310       H  0.46881967  0.61304838  0.00150260     0.12400
H2311       H  0.48134263  0.68565839  0.99774747     0.15100
H2312       H  0.52048056  0.68734247  0.97039829     0.13900
H2313       H  0.51453788  0.58169360  0.98150704     0.11600
H2314       H  0.48191258  0.58417893  0.01642200     0.13600
C2315       C  0.60779936  0.50234867  0.99729135     0.19700
C2316       C  0.61988674  0.52039804  0.99329824    -0.18400
C2317       C  0.64160619  0.52010318  0.99546953    -0.10700
C2318       C  0.65183150  0.50152549  0.00138710     0.21900
C2319       C  0.63971393  0.48338237  0.00492450    -0.20000
C2320       C  0.61803878  0.48370844  0.00281750    -0.10900
C2321       C  0.67484256  0.50027376  0.00467144    -0.15000
C2322       C  0.68874889  0.51525604  0.99892003    -0.28900
C2323       C  0.58464664  0.50352919  0.99562838    -0.03100
C2324       C  0.57166614  0.49063689  0.00626353    -0.39700
H2325       H  0.61244365  0.53494717  0.98893317     0.13100
H2326       H  0.65007735  0.53459729  0.99287087     0.12700
H2327       H  0.64705940  0.46880627  0.00937350     0.12200
H2328       H  0.60945127  0.46924392  0.00536165     0.12400
H2329       H  0.68050041  0.48592447  0.01168042     0.15100
H2330       H  0.68342136  0.52896061  0.99054318     0.13900
H2331       H  0.57811303  0.51612800  0.98634812     0.11600
H2332       H  0.57800058  0.47882255  0.01658779     0.13600
C2333       C  0.49216969  0.49854467  0.84777265     0.19700
C2334       C  0.47409950  0.49840024  0.86015686    -0.18400
C2335       C  0.47543582  0.49973413  0.88186582    -0.10700
C2336       C  0.49498357  0.50097926  0.89167546     0.21900
C2337       C  0.51303249  0.50089239  0.87931541    -0.20000
C2338       C  0.51170510  0.49944566  0.85765201    -0.10900
C2339       C  0.49721845  0.50262575  0.91465103    -0.15000
C2340       C  0.48298379  0.49493907  0.92812067    -0.28900
C2341       C  0.49008583  0.49783284  0.82468751    -0.03100
C2342       C  0.50477105  0.50575642  0.81175478    -0.39700
H2343       H  0.45887082  0.49767618  0.85298289     0.13100
H2344       H  0.46113266  0.50023658  0.89080890     0.12700
H2345       H  0.52826399  0.50168419  0.88647942     0.12200
H2346       H  0.52605471  0.49880864  0.84880684     0.12400
H2347       H  0.51161379  0.50930798  0.92065929     0.15100
H2348       H  0.46912483  0.48703570  0.92236824     0.13900
H2349       H  0.47552248  0.49190438  0.81845865     0.11600
H2350       H  0.51843045  0.51319234  0.81847321     0.13600
C2351       C  0.49772500  0.48359590  0.16778646     0.19700
C2352       C  0.49889196  0.50238408  0.15637485    -0.18400
C2353       C  0.50137723  0.50214939  0.13478017    -0.10700
C2354       C  0.50249157  0.48301097  0.12397322     0.21900
C2355       C  0.50211859  0.46419713  0.13539070    -0.20000
C2356       C  0.49960384  0.46441838  0.15707391    -0.10900
C2357       C  0.50358384  0.48222416  0.10085379    -0.15000
C2358       C  0.49516737  0.49720319  0.08880735    -0.28900
C2359       C  0.49347638  0.48497120  0.19053699    -0.03100
C2360       C  0.49554184  0.46902371  0.20417231    -0.39700
H2361       H  0.49767648  0.51738223  0.16419285     0.13100
H2362       H  0.50239971  0.51701679  0.12665079     0.12700
H2363       H  0.50308826  0.44925504  0.12743708     0.12200
H2364       H  0.49852312  0.44954292  0.16514248     0.12400
H2365       H  0.51015636  0.46836237  0.09360613     0.15100
H2366       H  0.48729512  0.51039118  0.09593371     0.13900
H2367       H  0.48885610  0.50022320  0.19640181     0.11600
H2368       H  0.50193913  0.45418188  0.19910227     0.13600
C2369       C  0.37458886  0.48484364  0.01413916     0.19700
C2370       C  0.36150970  0.47423596  0.00013108    -0.18400
C2371       C  0.33984118  0.47574451  0.00182169    -0.10700
C2372       C  0.33080332  0.48777133  0.01779523     0.21900
C2373       C  0.34387155  0.49790464  0.03210840    -0.20000
C2374       C  0.36548457  0.49631839  0.03048231    -0.10900
C2375       C  0.30799080  0.49095294  0.01970572    -0.15000
C2376       C  0.29354315  0.47779046  0.01178606    -0.28900
C2377       C  0.39753062  0.48375754  0.01101811    -0.03100
C2378       C  0.41098775  0.49784766  0.01906446    -0.39700
H2379       H  0.36809093  0.46519014  0.98747981     0.13100
H2380       H  0.33038150  0.46801744  0.99020367     0.12700
H2381       H  0.33731240  0.50711829  0.04465487     0.12200
H2382       H  0.37485122  0.50407967  0.04214206     0.12400
H2383       H  0.30312659  0.50475823  0.02820934     0.15100
H2384       H  0.29845065  0.46406844  0.00315203     0.13900
H2385       H  0.40346969  0.47143812  0.00098444     0.11600
H2386       H  0.40545817  0.51068999  0.02858278     0.13600
C2387       C  0.48628637  0.33359455  0.01657902     0.19700
C2388       C  0.48569726  0.34562532  0.99825022    -0.18400
C2389       C  0.48877314  0.36736670  0.99881706    -0.10700
C2390       C  0.49232509  0.37766426  0.01784733     0.21900
C2391       C  0.49326343  0.36566393  0.03615348    -0.20000
C2392       C  0.49007340  0.34390235  0.03561561    -0.10900
C2393       C  0.49507812  0.40083022  0.01907643    -0.15000
C2394       C  0.48580076  0.41403014  0.00570074    -0.28900
C2395       C  0.48226146  0.31055832  0.01510903    -0.03100
C2396       C  0.48748952  0.29666565  0.03002278    -0.39700
H2397       H  0.48288968  0.33815527  0.98337320     0.13100
H2398       H  0.48855393  0.37600226  0.98429213     0.12700
H2399       H  0.49598028  0.37322580  0.05100276     0.12200
H2400       H  0.49014547  0.33543620  0.05021552     0.12400
H2401       H  0.50391719  0.40721436  0.03203109     0.15100
H2402       H  0.47572198  0.40783016  0.99361585     0.13900
H2403       H  0.47552596  0.30486420  0.00070674     0.11600
H2404       H  0.49584175  0.30213905  0.04363231     0.13600
loop_ 
_geom_bond_atom_site_label_1 
_geom_bond_atom_site_label_2 
_geom_bond_distance 
_geom_bond_site_symmetry_2 
_ccdc_geom_bond_type 
Zn1           O5   1.957   1_556  S
Zn1           O6   2.007       .  S
Zn1          O10   2.005       .  S
Zn1          O17   2.020   1_556  S
Zn2           O5   1.965       .  S
Zn2           O7   2.016       .  S
Zn2           O9   2.033       .  S
Zn2          O13   2.032       .  S
Zn3           O5   1.978   1_556  S
Zn3           O8   2.040       .  S
Zn3          O11   2.048       .  S
Zn3          O14   2.049       .  S
Zn4           O5   1.948       .  S
Zn4          O12   1.999       .  S
Zn4          O15   2.001       .  S
Zn4          O16   2.007       .  S
O6           C18   1.271   1_556  A
O7           C19   1.274       .  A
O8           C20   1.278       .  A
O9           C18   1.275       .  A
O10          C20   1.272       .  A
O11          C19   1.278   1_556  A
O12          C21   1.271       .  A
O13          C22   1.275       .  A
O14          C21   1.277   1_556  A
O15          C22   1.271       .  A
O16          C23   1.270       .  A
O17          C23   1.273       .  A
C18        C2394   1.476       .  S
C19        C2324   1.481       .  S
C20        C2340   1.476       .  S
C21        C2306   1.477       .  S
C22        C2358   1.474       .  S
C23        C2378   1.474       .  S
Zn24         O28   1.973       .  S
Zn24         O29   2.038       .  S
Zn24         O33   2.029       .  S
Zn24         O40   2.042       .  S
Zn25         O28   1.956       .  S
Zn25         O30   2.001   1_565  S
Zn25         O32   2.004       .  S
Zn25         O36   2.014       .  S
Zn26         O28   1.981       .  S
Zn26         O31   2.047       .  S
Zn26         O34   2.042   1_565  S
Zn26         O37   2.039       .  S
Zn27         O28   1.957       .  S
Zn27         O35   2.008       .  S
Zn27         O38   2.022       .  S
Zn27         O39   2.004       .  S
O29          C41   1.276       .  A
O30          C42   1.271       .  A
O31          C43   1.278       .  A
O32          C41   1.271       .  A
O33          C43   1.275       .  A
O34          C42   1.276       .  A
O35          C44   1.272       .  A
O36          C45   1.273       .  A
O37          C44   1.276       .  A
O38          C45   1.272       .  A
O39          C46   1.271       .  A
O40          C46   1.276       .  A
C41        C2288   1.478       .  S
C42        C2250   1.475       .  S
C43        C2270   1.485       .  S
C44        C2232   1.476       .  S
C45        C2216   1.478       .  S
C46        C2198   1.476       .  S
Zn47         O51   1.963       .  S
Zn47         O52   2.012       .  S
Zn47         O56   2.034       .  S
Zn47         O63   2.015       .  S
Zn48         O51   1.983   1_655  S
Zn48         O53   2.052       .  S
Zn48         O55   2.034       .  S
Zn48         O59   2.041       .  S
Zn49         O51   1.949   1_655  S
Zn49         O54   2.011       .  S
Zn49         O57   2.004       .  S
Zn49         O60   2.002       .  S
Zn50         O51   1.975       .  S
Zn50         O58   2.041       .  S
Zn50         O61   2.016       .  S
Zn50         O62   2.045       .  S
O52          C64   1.273       .  A
O53          C65   1.276       .  A
O54          C66   1.271       .  A
O55          C64   1.276   1_655  A
O56          C66   1.274   1_455  A
O57          C65   1.271       .  A
O58          C67   1.276       .  A
O59          C68   1.278   1_655  A
O60          C67   1.271   1_655  A
O61          C68   1.274       .  A
O62          C69   1.276       .  A
O63          C69   1.272       .  A
C64        C2180   1.474       .  S
C65        C2108   1.478       .  S
C66        C2162   1.478       .  S
C67        C2124   1.476       .  S
C68        C2090   1.479       .  S
C69        C2142   1.481       .  S
Zn70         O74   1.959   1_564  S
Zn70         O75   2.030       .  S
Zn70         O79   2.017   1_565  S
Zn70         O86   2.030   1_565  S
Zn71         O74   1.954   1_465  S
Zn71         O76   1.999       .  S
Zn71         O78   2.015       .  S
Zn71         O82   2.013       .  S
Zn72         O74   1.965       .  S
Zn72         O77   2.028       .  S
Zn72         O80   2.032       .  S
Zn72         O83   2.025       .  S
Zn73         O74   1.960   1_454  S
Zn73         O81   2.029       .  S
Zn73         O84   2.018       .  S
Zn73         O85   2.019       .  S
O75          C87   1.274       .  A
O76          C88   1.270   1_465  A
O77          C89   1.276   1_556  A
O78          C87   1.274   1_456  A
O79          C89   1.274       .  A
O80          C88   1.275       .  A
O81          C90   1.275   1_454  A
O82          C91   1.274   1_565  A
O83          C90   1.274       .  A
O84          C91   1.273   1_554  A
O85          C92   1.273       .  A
O86          C92   1.276   1_655  A
C87        C2000   1.481       .  S
C88        C2016   1.473   1_655  S
C89        C1980   1.477       .  S
C90        C2034   1.480       .  S
C91        C2052   1.475       .  S
C92        C2070   1.479       .  S
C93        C1944   1.495       .  S
C93          C94   1.409       .  A
C93          C98   1.407   1_556  A
C94          C95   1.404   1_556  A
C94          H99   1.083       .  S
C95        C2322   1.495   1_554  S
C95          C96   1.409       .  A
C96          C97   1.406       .  A
C96         H100   1.081       .  S
C97        C1962   1.492       .  S
C97          C98   1.411       .  A
C98         H101   1.083       .  S
C102       C1908   1.487       .  S
C102        C103   1.403       .  A
C102        C107   1.408       .  A
C103        C104   1.407       .  A
C103        H108   1.081       .  S
C104       C2376   1.488       .  S
C104        C105   1.402       .  A
C105        C106   1.406       .  A
C105        H109   1.083   1_554  S
C106       C1928   1.483   1_554  S
C106        C107   1.402       .  A
C107        H110   1.082       .  S
C111       C1890   1.487       .  S
C111        C112   1.405       .  A
C111        C116   1.412       .  A
C112        C113   1.400       .  A
C112        H117   1.085       .  S
C113       C2178   1.488       .  S
C113        C114   1.403       .  A
C114        C115   1.404       .  A
C114        H118   1.083       .  S
C115       C1872   1.494   1_655  S
C115        C116   1.414       .  A
C116        H119   1.080       .  S
C120       C1854   1.491       .  S
C120        C121   1.405   1_456  A
C120        C125   1.411       .  A
C121        C122   1.403       .  A
C121        H126   1.084       .  S
C122       C1836   1.490       .  S
C122        C123   1.407       .  A
C123        C124   1.404       .  A
C123        H127   1.083       .  S
C124       C2036   1.491       .  S
C124        C125   1.410   1_654  A
C125        H128   1.080       .  S
C129       C1818   1.492       .  S
C129        C130   1.410       .  A
C129        C134   1.408   1_455  A
C130        C131   1.405   1_455  A
C130        H135   1.080       .  S
C131       C2126   1.487       .  S
C131        C132   1.400       .  A
C132        C133   1.403       .  A
C132        H136   1.085       .  S
C133       C1800   1.491       .  S
C133        C134   1.410       .  A
C134        H137   1.081       .  S
Zn138       O142   1.943       .  S
Zn138       O143   1.988       .  S
Zn138       O147   2.008       .  S
Zn138       O154   2.003       .  S
Zn139       O142   1.986       .  S
Zn139       O144   2.051       .  S
Zn139       O146   2.046       .  S
Zn139       O150   2.052       .  S
Zn140       O142   1.959       .  S
Zn140       O145   2.028       .  S
Zn140       O148   2.007       .  S
Zn140       O151   2.014       .  S
Zn141       O142   1.962       .  S
Zn141       O149   2.018       .  S
Zn141       O152   2.004       .  S
Zn141       O153   2.039       .  S
O143        C155   1.271       .  A
O144        C156   1.278       .  A
O145        C157   1.272       .  A
O146        C155   1.275       .  A
O147        C157   1.273       .  A
O148        C156   1.272       .  A
O149        C158   1.273       .  A
O150        C159   1.279       .  A
O151        C158   1.274       .  A
O152        C159   1.273       .  A
O153        C160   1.273       .  A
O154        C160   1.272       .  A
C155       C1746   1.474       .  S
C156       C1856   1.479       .  S
C157       C1764   1.478       .  S
C158       C1926   1.476       .  S
C159       C1820   1.477       .  S
C160       C1782   1.483       .  S
C161       C1730   1.490       .  S
C161        C162   1.405   1_655  A
C161        C166   1.413       .  A
C162        C163   1.406       .  A
C162        H167   1.082       .  S
C163       C1710   1.487   1_556  S
C163        C164   1.399       .  A
C164        C165   1.401       .  A
C164        H168   1.085   1_556  S
C165       C1998   1.485       .  S
C165        C166   1.410   1_455  A
C166        H169   1.082       .  S
Zn170       O174   1.970       .  S
Zn170       O175   2.020       .  S
Zn170       O179   2.027       .  S
Zn170       O186   2.028       .  S
Zn171       O174   1.975       .  S
Zn171       O176   2.068       .  S
Zn171       O178   2.035       .  S
Zn171       O182   2.042       .  S
Zn172       O174   1.944       .  S
Zn172       O177   2.001       .  S
Zn172       O180   1.985       .  S
Zn172       O183   1.991       .  S
Zn173       O174   1.968       .  S
Zn173       O181   2.037       .  S
Zn173       O184   2.028       .  S
Zn173       O185   2.031       .  S
O175        C187   1.276       .  A
O176        C188   1.278       .  A
O177        C189   1.271       .  A
O178        C187   1.276       .  A
O179        C189   1.272       .  A
O180        C188   1.269       .  A
O181        C190   1.275       .  A
O182        C191   1.277       .  A
O183        C190   1.269       .  A
O184        C191   1.277       .  A
O185        C192   1.275       .  A
O186        C192   1.275       .  A
C187       C1802   1.481       .  S
C188       C1728   1.478       .  S
C189       C1656   1.478       .  S
C190       C1674   1.473       .  S
C191       C1946   1.485       .  S
C192       C1692   1.483       .  S
Zn193       O197   1.981       .  S
Zn193       O198   2.042       .  S
Zn193       O202   2.049       .  S
Zn193       O209   2.057       .  S
Zn194       O197   1.969       .  S
Zn194       O199   2.036       .  S
Zn194       O201   2.023       .  S
Zn194       O205   2.040       .  S
Zn195       O197   1.965       .  S
Zn195       O200   2.007       .  S
Zn195       O203   2.029       .  S
Zn195       O206   2.045       .  S
Zn196       O197   1.943       .  S
Zn196       O204   1.993       .  S
Zn196       O207   1.996       .  S
Zn196       O208   2.003       .  S
O198        C210   1.278       .  A
O199        C211   1.276       .  A
O200        C212   1.273       .  A
O201        C210   1.275       .  A
O202        C212   1.279       .  A
O203        C211   1.274       .  A
O204        C213   1.271       .  A
O205        C214   1.274       .  A
O206        C213   1.274       .  A
O207        C214   1.272       .  A
O208        C215   1.271       .  A
O209        C215   1.276       .  A
C210       C1892   1.482       .  S
C211       C1964   1.483       .  S
C212       C1838   1.477       .  S
C213       C1622   1.483       .  S
C214       C1638   1.478       .  S
C215       C1602   1.480       .  S
Zn216       O220   1.946       .  S
Zn216       O221   1.998       .  S
Zn216       O225   2.000       .  S
Zn216       O232   2.006       .  S
Zn217       O220   1.965       .  S
Zn217       O222   2.007       .  S
Zn217       O224   2.033       .  S
Zn217       O228   2.037       .  S
Zn218       O220   1.976       .  S
Zn218       O223   2.055       .  S
Zn218       O226   2.047       .  S
Zn218       O229   2.022       .  S
Zn219       O220   1.962       .  S
Zn219       O227   2.013       .  S
Zn219       O230   2.017       .  S
Zn219       O231   2.025       .  S
O221        C233   1.271       .  A
O222        C234   1.272       .  A
O223        C235   1.278       .  A
O224        C233   1.276       .  A
O225        C235   1.271       .  A
O226        C234   1.278       .  A
O227        C236   1.274       .  A
O228        C237   1.276       .  A
O229        C236   1.274       .  A
O230        C237   1.272       .  A
O231        C238   1.275       .  A
O232        C238   1.271       .  A
C233       C1712   1.473       .  S
C234       C1548   1.479       .  S
C235       C1874   1.479       .  S
C236       C1586   1.477       .  S
C237       C1568   1.481       .  S
C238       C1910   1.475       .  S
C239       C1514   1.489       .  S
C239        C240   1.407       .  A
C239        C244   1.402       .  A
C240        C241   1.404       .  A
C240        H245   1.083       .  S
C241       C2396   1.491       .  S
C241        C242   1.410       .  A
C242        C243   1.409       .  A
C242        H246   1.080       .  S
C243       C1530   1.488       .  S
C243        C244   1.404       .  A
C244        H247   1.084       .  S
C248       C1476   1.489       .  S
C248        C249   1.403       .  A
C248        C253   1.409       .  A
C249        C250   1.402       .  A
C249        H254   1.085       .  S
C250       C2304   1.493       .  S
C250        C251   1.409       .  A
C251        C252   1.410       .  A
C251        H255   1.079   1_556  S
C252       C1494   1.493   1_556  S
C252        C253   1.407       .  A
C253        H256   1.082       .  S
C257       C1458   1.488       .  S
C257        C258   1.401       .  A
C257        C262   1.409       .  A
C258        C259   1.401       .  A
C258        H263   1.085       .  S
C259       C2286   1.491       .  S
C259        C260   1.408       .  A
C260        C261   1.408       .  A
C260        H264   1.081   1_565  S
C261       C1442   1.491   1_565  S
C261        C262   1.413       .  A
C262        H265   1.081       .  S
C266       C1422   1.485       .  S
C266        C267   1.410   1_545  A
C266        C271   1.404       .  A
C267        C268   1.409   1_556  A
C267        H272   1.081       .  S
C268       C1404   1.485       .  S
C268        C269   1.402       .  A
C269        C270   1.399   1_554  A
C269        H273   1.085       .  S
C270       C2054   1.485       .  S
C270        C271   1.404   1_565  A
C271        H274   1.083       .  S
C275       C1386   1.492   1_545  S
C275        C276   1.408       .  A
C275        C280   1.407       .  A
C276        C277   1.401       .  A
C276        H281   1.083   1_545  S
C277       C1982   1.488       .  S
C277        C278   1.406   1_556  A
C278        C279   1.405       .  A
C278        H282   1.083       .  S
C279       C1368   1.493       .  S
C279        C280   1.412   1_554  A
C280        H283   1.082       .  S
Zn284       O288   1.949       .  S
Zn284       O289   1.989       .  S
Zn284       O293   2.009       .  S
Zn284       O300   2.007       .  S
Zn285       O288   1.976       .  S
Zn285       O290   2.034       .  S
Zn285       O292   2.039       .  S
Zn285       O296   2.019       .  S
Zn286       O288   1.960       .  S
Zn286       O291   2.033       .  S
Zn286       O294   2.022       .  S
Zn286       O297   2.013       .  S
Zn287       O288   1.973       .  S
Zn287       O295   2.037       .  S
Zn287       O298   2.031       .  S
Zn287       O299   2.035       .  S
O289        C301   1.271       .  A
O290        C302   1.276       .  A
O291        C303   1.273       .  A
O292        C301   1.273       .  A
O293        C303   1.272       .  A
O294        C302   1.274       .  A
O295        C304   1.276       .  A
O296        C305   1.274       .  A
O297        C304   1.273       .  A
O298        C305   1.277       .  A
O299        C306   1.274       .  A
O300        C306   1.273       .  A
C301       C1676   1.478       .  S
C302       C1388   1.480       .  S
C303       C1314   1.479       .  S
C304       C1350   1.478       .  S
C305       C1478   1.479       .  S
C306       C1332   1.478       .  S
C307       C1296   1.487       .  S
C307        C308   1.403   1_545  A
C307        C312   1.407       .  A
C308        C309   1.403       .  A
C308        H313   1.084       .  S
C309       C1352   1.488       .  S
C309        C310   1.408       .  A
C310        C311   1.409   1_565  A
C310        H314   1.081       .  S
C311       C2234   1.489       .  S
C311        C312   1.404       .  A
C312        H315   1.083       .  S
Zn316       O320   1.939       .  S
Zn316       O321   1.997       .  S
Zn316       O325   1.978       .  S
Zn316       O332   1.997       .  S
Zn317       O320   1.969       .  S
Zn317       O322   2.031       .  S
Zn317       O324   2.038       .  S
Zn317       O328   2.023       .  S
Zn318       O320   1.973       .  S
Zn318       O323   2.049       .  S
Zn318       O326   2.023       .  S
Zn318       O329   2.023       .  S
Zn319       O320   1.970       .  S
Zn319       O327   2.030       .  S
Zn319       O330   2.022       .  S
Zn319       O331   2.041       .  S
O321        C333   1.270       .  A
O322        C334   1.275       .  A
O323        C335   1.274       .  A
O324        C333   1.275       .  A
O325        C335   1.270       .  A
O326        C334   1.275       .  A
O327        C336   1.277       .  A
O328        C337   1.274       .  A
O329        C336   1.275       .  A
O330        C337   1.275       .  A
O331        C338   1.273       .  A
O332        C338   1.270       .  A
C333       C1280   1.473       .  S
C334       C1532   1.481       .  S
C335       C1766   1.479       .  S
C336       C1424   1.479       .  S
C337       C1298   1.478       .  S
C338       C1260   1.475       .  S
Zn339       O343   1.981       .  S
Zn339       O344   2.053       .  S
Zn339       O348   2.048       .  S
Zn339       O355   2.038       .  S
Zn340       O343   1.963       .  S
Zn340       O345   2.027       .  S
Zn340       O347   2.014       .  S
Zn340       O351   2.027       .  S
Zn341       O343   1.958       .  S
Zn341       O346   2.012       .  S
Zn341       O349   2.009       .  S
Zn341       O352   2.011       .  S
Zn342       O343   1.965       .  S
Zn342       O350   2.028       .  S
Zn342       O353   2.029       .  S
Zn342       O354   2.009       .  S
O344        C356   1.279       .  A
O345        C357   1.273       .  A
O346        C358   1.272       .  A
O347        C356   1.273       .  A
O348        C358   1.277       .  A
O349        C357   1.274       .  A
O350        C359   1.275       .  A
O351        C360   1.273       .  A
O352        C359   1.271       .  A
O353        C360   1.275       .  A
O354        C361   1.272       .  A
O355        C361   1.277       .  A
C356       C1496   1.482       .  S
C357       C1406   1.479       .  S
C358       C1566   1.481       .  S
C359       C1224   1.478       .  S
C360       C1460   1.482       .  S
C361       C1242   1.478       .  S
Zn362       O366   1.974       .  S
Zn362       O367   2.013       .  S
Zn362       O371   2.043       .  S
Zn362       O378   2.045       .  S
Zn363       O366   1.988       .  S
Zn363       O368   2.054       .  S
Zn363       O370   2.046       .  S
Zn363       O374   2.073       .  S
Zn364       O366   1.968       .  S
Zn364       O369   2.015       .  S
Zn364       O372   2.014       .  S
Zn364       O375   2.046       .  S
Zn365       O366   1.935       .  S
Zn365       O373   1.975       .  S
Zn365       O376   1.990       .  S
Zn365       O377   1.995       .  S
O367        C379   1.274       .  A
O368        C380   1.279       .  A
O369        C381   1.272       .  A
O370        C379   1.279       .  A
O371        C381   1.276       .  A
O372        C380   1.274       .  A
O373        C382   1.270       .  A
O374        C383   1.278       .  A
O375        C382   1.274       .  A
O376        C383   1.270       .  A
O377        C384   1.272       .  A
O378        C384   1.274       .  A
C379       C1512   1.478       .  S
C380       C1440   1.481       .  S
C381       C1370   1.480       .  S
C382       C1188   1.479       .  S
C383       C1208   1.487       .  S
C384       C1620   1.483       .  S
C385       C1152   1.492       .  S
C385        C386   1.404       .  A
C385        C390   1.411       .  A
C386        C387   1.404       .  A
C386        H391   1.083       .  S
C387       C2360   1.487       .  S
C387        C388   1.400       .  A
C388        C389   1.409       .  A
C388        H392   1.082       .  S
C389       C1170   1.491       .  S
C389        C390   1.408       .  A
C390        H393   1.081       .  S
C394       C1134   1.490       .  S
C394        C395   1.409       .  A
C394        C399   1.404       .  A
C395        C396   1.406       .  A
C395        H400   1.083       .  S
C396       C1116   1.486       .  S
C396        C397   1.409       .  A
C397        C398   1.408       .  A
C397        H401   1.082       .  S
C398       C2106   1.491       .  S
C398        C399   1.403       .  A
C399        H402   1.085       .  S
Zn403       O407   1.980       .  S
Zn403       O408   2.048       .  S
Zn403       O412   2.048       .  S
Zn403       O419   2.050       .  S
Zn404       O407   1.969       .  S
Zn404       O409   2.046       .  S
Zn404       O411   2.022       .  S
Zn404       O415   2.051       .  S
Zn405       O407   1.952       .  S
Zn405       O410   1.997       .  S
Zn405       O413   2.009       .  S
Zn405       O416   2.010       .  S
Zn406       O407   1.953       .  S
Zn406       O414   2.023       .  S
Zn406       O417   1.995       .  S
Zn406       O418   2.017       .  S
O408        C420   1.279       .  A
O409        C421   1.276       .  A
O410        C422   1.271       .  A
O411        C420   1.275       .  A
O412        C422   1.277       .  A
O413        C421   1.273       .  A
O414        C423   1.274       .  A
O415        C424   1.277       .  A
O416        C423   1.271       .  A
O417        C424   1.271       .  A
O418        C425   1.273       .  A
O419        C425   1.277       .  A
C420       C1098   1.482       .  S
C421       C1136   1.483       .  S
C422       C1080   1.476       .  S
C423       C1640   1.475       .  S
C424       C1172   1.476       .  S
C425       C1206   1.484       .  S
C426       C1062   1.488       .  S
C426        C427   1.410       .  A
C426        C431   1.402       .  A
C427        C428   1.414       .  A
C427        H432   1.079       .  S
C428       C1100   1.497       .  S
C428        C429   1.408       .  A
C429        C430   1.407       .  A
C429        H433   1.082       .  S
C430       C2252   1.491       .  S
C430        C431   1.400       .  A
C431        H434   1.085       .  S
C435       C1046   1.484       .  S
C435        C436   1.404       .  A
C435        C440   1.399       .  A
C436        C437   1.402       .  A
C436        H441   1.083       .  S
C437       C2196   1.491       .  S
C437        C438   1.411       .  A
C438        C439   1.413       .  A
C438        H442   1.078       .  S
C439       C1026   1.490       .  S
C439        C440   1.404       .  A
C440        H443   1.085       .  S
Zn444       O448   1.963       .  S
Zn444       O449   2.016       .  S
Zn444       O453   2.026       .  S
Zn444       O460   2.030       .  S
Zn445       O448   1.963       .  S
Zn445       O450   2.019       .  S
Zn445       O452   2.021       .  S
Zn445       O456   2.029       .  S
Zn446       O448   1.969       .  S
Zn446       O451   2.027       .  S
Zn446       O454   2.041       .  S
Zn446       O457   2.036       .  S
Zn447       O448   1.950       .  S
Zn447       O455   1.988       .  S
Zn447       O458   1.993       .  S
Zn447       O459   2.010       .  S
O449        C461   1.273       .  A
O450        C462   1.274       .  A
O451        C463   1.275       .  A
O452        C461   1.275       .  A
O453        C463   1.276       .  A
O454        C462   1.277       .  A
O455        C464   1.270       .  A
O456        C465   1.274       .  A
O457        C464   1.276       .  A
O458        C465   1.269       .  A
O459        C466   1.272       .  A
O460        C466   1.273       .  A
C461       C1584   1.477       .  S
C462       C1008   1.481       .  S
C463       C1154   1.480       .  S
C464       C1044   1.471       .  S
C465        C990   1.471       .  S
C466       C1244   1.479       .  S
C467        C972   1.493       .  S
C467        C468   1.406       .  A
C467        C472   1.409       .  A
C468        C469   1.409       .  A
C468        H473   1.082       .  S
C469       C2144   1.493       .  S
C469        C470   1.405       .  A
C470        C471   1.410       .  A
C470        H474   1.082       .  S
C471       C1010   1.495       .  S
C471        C472   1.407       .  A
C472        H475   1.083       .  S
C476        C938   1.492       .  S
C476        C477   1.402       .  A
C476        C481   1.409       .  A
C477        C478   1.401       .  A
C477        H482   1.085       .  S
C478       C2342   1.490       .  S
C478        C479   1.408       .  A
C479        C480   1.410       .  A
C479        H483   1.080       .  S
C480        C956   1.489       .  S
C480        C481   1.408       .  A
C481        H484   1.081       .  S
Zn485       O489   1.923       .  S
Zn485       O490   1.966       .  S
Zn485       O494   1.973       .  S
Zn485       O501   1.981       .  S
Zn486       O489   1.977       .  S
Zn486       O491   2.038       .  S
Zn486       O493   2.055       .  S
Zn486       O497   2.033       .  S
Zn487       O489   1.977       .  S
Zn487       O492   2.062       .  S
Zn487       O495   2.033       .  S
Zn487       O498   2.042       .  S
Zn488       O489   1.970       .  S
Zn488       O496   2.020       .  S
Zn488       O499   2.032       .  S
Zn488       O500   2.048       .  S
O490        C502   1.269       .  A
O491        C503   1.278       .  A
O492        C504   1.275       .  A
O493        C502   1.275       .  A
O494        C504   1.268       .  A
O495        C503   1.277       .  A
O496        C505   1.275       .  A
O497        C506   1.276       .  A
O498        C505   1.278       .  A
O499        C506   1.277       .  A
O500        C507   1.273       .  A
O501        C507   1.269       .  A
C502        C920   1.482       .  S
C503        C974   1.482       .  S
C504       C1784   1.485       .  S
C505        C954   1.480       .  S
C506       C1064   1.482       .  S
C507       C1278   1.480       .  S
Zn508       O512   1.966       .  S
Zn508       O513   2.030       .  S
Zn508       O517   2.021       .  S
Zn508       O524   2.020       .  S
Zn509       O512   1.969       .  S
Zn509       O514   2.037       .  S
Zn509       O516   2.025       .  S
Zn509       O520   2.045       .  S
Zn510       O512   1.969       .  S
Zn510       O515   2.032       .  S
Zn510       O518   2.033       .  S
Zn510       O521   2.037       .  S
Zn511       O512   1.955       .  S
Zn511       O519   2.000       .  S
Zn511       O522   1.995       .  S
Zn511       O523   2.015       .  S
O513        C525   1.275       .  A
O514        C526   1.277       .  A
O515        C527   1.275       .  A
O516        C525   1.274       .  A
O517        C527   1.276       .  A
O518        C526   1.275       .  A
O519        C528   1.270       .  A
O520        C529   1.277       .  A
O521        C528   1.275       .  A
O522        C529   1.270       .  A
O523        C530   1.273       .  A
O524        C530   1.272       .  A
C525       C1694   1.482       .  S
C526       C1118   1.479       .  S
C527        C936   1.481       .  S
C528       C1028   1.476       .  S
C529        C900   1.476       .  S
C530       C1334   1.477       .  S
C531        C864   1.487       .  S
C531        C532   1.398       .  A
C531        C536   1.404       .  A
C532        C533   1.404   1_545  A
C532        H537   1.085       .  S
C533        C882   1.494       .  S
C533        C534   1.415       .  A
C534        C535   1.415   1_565  A
C534        H538   1.078       .  S
C535       C2268   1.496       .  S
C535        C536   1.407       .  A
C536        H539   1.083       .  S
C540        C846   1.490       .  S
C540        C541   1.409       .  A
C540        C545   1.405       .  A
C541        C542   1.404       .  A
C541        H546   1.083       .  S
C542       C2214   1.490       .  S
C542        C543   1.406   1_545  A
C543        C544   1.403       .  A
C543        H547   1.082       .  S
C544        C828   1.489       .  S
C544        C545   1.409   1_565  A
C545        H548   1.082       .  S
C549        C792   1.488       .  S
C549        C550   1.408       .  A
C549        C554   1.402       .  A
C550        C551   1.406       .  A
C550        H555   1.082       .  S
C551       C2160   1.492       .  S
C551        C552   1.410   1_455  A
C552        C553   1.410       .  A
C552        H556   1.078       .  S
C553        C812   1.492       .  S
C553        C554   1.403   1_655  A
C554        H557   1.085       .  S
C558        C758   1.485   1_455  S
C558        C559   1.400   1_455  A
C558        C563   1.407       .  A
C559        C560   1.400   1_655  A
C559        H564   1.085       .  S
C560       C2072   1.486       .  S
C560        C561   1.407   1_545  A
C561        C562   1.413       .  A
C561        H565   1.080       .  S
C562        C776   1.494       .  S
C562        C563   1.410   1_565  A
C563        H566   1.083       .  S
C567        C722   1.491       .  S
C567        C568   1.408       .  A
C567        C572   1.407       .  A
C568        C569   1.402       .  A
C568        H573   1.081       .  S
C569        C740   1.487   1_455  S
C569        C570   1.407   1_455  A
C570        C571   1.401   1_655  A
C570        H574   1.083       .  S
C571       C2088   1.487       .  S
C571        C572   1.408       .  A
C572        H575   1.083       .  S
Zn576       O580   1.978       .  S
Zn576       O581   2.053       .  S
Zn576       O585   2.033       .  S
Zn576       O592   2.064       .  S
Zn577       O580   1.952       .  S
Zn577       O582   1.999       .  S
Zn577       O584   1.991       .  S
Zn577       O588   2.007       .  S
Zn578       O580   1.980       .  S
Zn578       O583   2.034       .  S
Zn578       O586   2.053       .  S
Zn578       O589   2.049       .  S
Zn579       O580   1.944       .  S
Zn579       O587   1.993       .  S
Zn579       O590   2.004       .  S
Zn579       O591   1.987       .  S
O581        C593   1.276       .  A
O582        C594   1.271       .  A
O583        C595   1.278       .  A
O584        C593   1.272       .  A
O585        C595   1.277       .  A
O586        C594   1.277       .  A
O587        C596   1.270       .  A
O588        C597   1.269       .  A
O589        C596   1.277       .  A
O590        C597   1.272       .  A
O591        C598   1.269       .  A
O592        C598   1.278       .  A
C593        C720   1.482       .  S
C594       C1550   1.479       .  S
C595        C774   1.482       .  S
C596       C1226   1.475       .  S
C597        C992   1.473       .  S
C598        C884   1.478       .  S
Zn599       O603   1.964       .  S
Zn599       O604   2.016       .  S
Zn599       O608   2.048       .  S
Zn599       O615   2.039       .  S
Zn600       O603   1.981       .  S
Zn600       O605   2.044       .  S
Zn600       O607   2.037       .  S
Zn600       O611   2.042       .  S
Zn601       O603   1.946       .  S
Zn601       O606   2.013       .  S
Zn601       O609   1.995       .  S
Zn601       O612   2.001       .  S
Zn602       O603   1.961       .  S
Zn602       O610   2.029       .  S
Zn602       O613   2.011       .  S
Zn602       O614   2.015       .  S
O604        C616   1.275       .  A
O605        C617   1.274       .  A
O606        C618   1.272       .  A
O607        C616   1.278       .  A
O608        C618   1.275       .  A
O609        C617   1.271       .  A
O610        C619   1.273       .  A
O611        C620   1.277       .  A
O612        C619   1.274       .  A
O613        C620   1.273       .  A
O614        C621   1.273       .  A
O615        C621   1.276       .  A
C616        C810   1.476       .  S
C617       C1082   1.481       .  S
C618       C1604   1.480       .  S
C619       C1190   1.478       .  S
C620        C848   1.478       .  S
C621        C756   1.480       .  S
C622        C704   1.479       .  S
C622        C623   1.399   1_565  A
C622        C627   1.407   1_665  A
C623        C624   1.397       .  A
C623        H628   1.085   1_545  S
C624       C2018   1.483       .  S
C624        C625   1.406   1_655  A
C625        C626   1.405       .  A
C625        H629   1.083       .  S
C626        C686   1.485       .  S
C626        C627   1.410       .  A
C627        H630   1.081       .  S
Zn631       O635   1.945       .  S
Zn631       O636   2.009       .  S
Zn631       O640   1.992       .  S
Zn631       O647   1.991       .  S
Zn632       O635   1.955       .  S
Zn632       O637   2.012       .  S
Zn632       O639   2.017       .  S
Zn632       O643   2.008       .  S
Zn633       O635   1.964       .  S
Zn633       O638   2.035       .  S
Zn633       O641   2.012       .  S
Zn633       O644   2.016       .  S
Zn634       O635   1.971       .  S
Zn634       O642   2.037       .  S
Zn634       O645   2.037       .  S
Zn634       O646   2.043       .  S
O636        C648   1.272       .  A
O637        C649   1.274       .  A
O638        C650   1.275       .  A
O639        C648   1.272       .  A
O640        C650   1.270       .  A
O641        C649   1.272       .  A
O642        C651   1.278       .  A
O643        C652   1.272       .  A
O644        C651   1.274       .  A
O645        C652   1.276       .  A
O646        C653   1.277       .  A
O647        C653   1.270       .  A
C648       C1658   1.476       .  S
C649        C702   1.474       .  S
C650        C738   1.472       .  S
C651        C830   1.479       .  S
C652       C1316   1.477       .  S
C653        C902   1.475       .  S
Zn654       O658   1.964       .  S
Zn654       O659   2.023       .  S
Zn654       O663   2.018       .  S
Zn654       O670   2.035       .  S
Zn655       O658   1.970       .  S
Zn655       O660   2.024       .  S
Zn655       O662   2.022       .  S
Zn655       O666   2.032       .  S
Zn656       O658   1.964       .  S
Zn656       O661   2.022       .  S
Zn656       O664   2.022       .  S
Zn656       O667   2.025       .  S
Zn657       O658   1.948       .  S
Zn657       O665   2.016       .  S
Zn657       O668   2.001       .  S
Zn657       O669   2.013       .  S
O659        C671   1.274       .  A
O660        C672   1.273       .  A
O661        C673   1.274       .  A
O662        C671   1.276       .  A
O663        C673   1.275       .  A
O664        C672   1.274       .  A
O665        C674   1.274       .  A
O666        C675   1.273       .  A
O667        C674   1.273       .  A
O668        C675   1.274       .  A
O669        C676   1.273       .  A
O670        C676   1.273       .  A
C671        C866   1.478       .  S
C672        C794   1.480       .  S
C673        C684   1.477       .  S
C674       C1748   1.474       .  S
C675        C918   1.480       .  S
C676       C1262   1.477       .  S
C677        C685   1.485       .  S
C677        C678   1.403       .  A
C677        C682   1.407       .  A
C678        C679   1.398       .  A
C678        H687   1.083       .  S
C679        C680   1.407       .  A
C679        H688   1.082       .  S
C680        C683   1.486       .  S
C680        C681   1.403       .  A
C681        C682   1.398       .  A
C681        H689   1.083       .  S
C682        H690   1.082       .  S
C683        H691   1.087       .  S
C683        C684   1.347       .  D
C684        H692   1.085       .  S
C685        H693   1.086       .  S
C685        C686   1.346       .  D
C686        H694   1.086       .  S
C695        C703   1.481       .  S
C695        C696   1.401       .  A
C695        C700   1.406       .  A
C696        C697   1.400       .  A
C696        H705   1.083       .  S
C697        C698   1.411       .  A
C697        H706   1.080       .  S
C698        C701   1.486       .  S
C698        C699   1.402       .  A
C699        C700   1.393       .  A
C699        H707   1.084       .  S
C700        H708   1.083       .  S
C701        H709   1.087       .  S
C701        C702   1.344       .  D
C702        H710   1.083       .  S
C703        H711   1.085       .  S
C703        C704   1.344       .  D
C704        H712   1.087       .  S
C713        C721   1.493       .  S
C713        C714   1.407       .  A
C713        C718   1.408       .  A
C714        C715   1.400       .  A
C714        H723   1.083       .  S
C715        C716   1.405       .  A
C715        H724   1.082       .  S
C716        C719   1.486       .  S
C716        C717   1.404       .  A
C717        C718   1.397       .  A
C717        H725   1.084       .  S
C718        H726   1.080       .  S
C719        H727   1.087       .  S
C719        C720   1.350       .  D
C720        H728   1.085       .  S
C721        H729   1.084       .  S
C721        C722   1.352       .  D
C722        H730   1.083       .  S
C731        C739   1.487       .  S
C731        C732   1.402       .  A
C731        C736   1.410       .  A
C732        C733   1.394       .  A
C732        H741   1.084       .  S
C733        C734   1.407       .  A
C733        H742   1.082       .  S
C734        C737   1.485       .  S
C734        C735   1.402       .  A
C735        C736   1.401       .  A
C735        H743   1.083       .  S
C736        H744   1.080       .  S
C737        H745   1.087       .  S
C737        C738   1.344       .  D
C738        H746   1.086       .  S
C739        H747   1.085       .  S
C739        C740   1.346       .  D
C740        H748   1.084       .  S
C749        C757   1.488       .  S
C749        C750   1.403       .  A
C749        C754   1.407       .  A
C750        C751   1.401       .  A
C750        H759   1.083       .  S
C751        C752   1.409       .  A
C751        H760   1.082       .  S
C752        C755   1.489       .  S
C752        C753   1.403       .  A
C753        C754   1.399       .  A
C753        H761   1.083       .  S
C754        H762   1.082       .  S
C755        H763   1.087       .  S
C755        C756   1.346       .  D
C756        H764   1.085       .  S
C757        H765   1.086       .  S
C757        C758   1.346       .  D
C758        H766   1.087       .  S
C767        C775   1.496       .  S
C767        C768   1.410       .  A
C767        C772   1.406       .  A
C768        C769   1.402       .  A
C768        H777   1.079       .  S
C769        C770   1.408       .  A
C769        H778   1.081       .  S
C770        C773   1.491       .  S
C770        C771   1.403       .  A
C771        C772   1.399       .  A
C771        H779   1.083       .  S
C772        H780   1.083       .  S
C773        H781   1.087       .  S
C773        C774   1.348       .  D
C774        H782   1.085       .  S
C775        H783   1.084       .  S
C775        C776   1.352       .  D
C776        H784   1.083       .  S
C785        C793   1.489       .  S
C785        C786   1.403       .  A
C785        C790   1.409       .  A
C786        C787   1.398       .  A
C786        H795   1.083       .  S
C787        C788   1.408       .  A
C787        H796   1.082       .  S
C788        C791   1.489       .  S
C788        C789   1.404       .  A
C789        C790   1.400       .  A
C789        H797   1.083       .  S
C790        H798   1.081       .  S
C791        H799   1.085       .  S
C791        C792   1.347       .  D
C792        H800   1.086       .  S
C793        H801   1.087       .  S
C793        C794   1.347       .  D
C794        H802   1.085       .  S
C803        C811   1.489       .  S
C803        C804   1.403       .  A
C803        C808   1.410       .  A
C804        C805   1.397       .  A
C804        H813   1.083       .  S
C805        C806   1.407       .  A
C805        H814   1.082       .  S
C806        C809   1.486       .  S
C806        C807   1.403       .  A
C807        C808   1.401       .  A
C807        H815   1.083       .  S
C808        H816   1.081       .  S
C809        H817   1.087       .  S
C809        C810   1.345       .  D
C810        H818   1.086       .  S
C811        H819   1.084       .  S
C811        C812   1.348       .  D
C812        H820   1.085       .  S
C821        C829   1.491       .  S
C821        C822   1.404       .  A
C821        C826   1.409       .  A
C822        C823   1.398       .  A
C822        H831   1.083       .  S
C823        C824   1.408       .  A
C823        H832   1.081       .  S
C824        C827   1.491       .  S
C824        C825   1.404       .  A
C825        C826   1.400       .  A
C825        H833   1.083       .  S
C826        H834   1.080       .  S
C827        H835   1.085       .  S
C827        C828   1.348       .  D
C828        H836   1.084       .  S
C829        H837   1.087       .  S
C829        C830   1.347       .  D
C830        H838   1.084       .  S
C839        C847   1.491       .  S
C839        C840   1.404       .  A
C839        C844   1.408       .  A
C840        C841   1.403       .  A
C840        H849   1.083       .  S
C841        C842   1.409       .  A
C841        H850   1.081       .  S
C842        C845   1.489       .  S
C842        C843   1.403       .  A
C843        C844   1.397       .  A
C843        H851   1.083       .  S
C844        H852   1.082       .  S
C845        H853   1.086       .  S
C845        C846   1.348       .  D
C846        H854   1.085       .  S
C847        H855   1.087       .  S
C847        C848   1.346       .  D
C848        H856   1.085       .  S
C857        C865   1.487       .  S
C857        C858   1.404       .  A
C857        C862   1.407       .  A
C858        C859   1.400       .  A
C858        H867   1.083       .  S
C859        C860   1.408       .  A
C859        H868   1.081       .  S
C860        C863   1.488       .  S
C860        C861   1.403       .  A
C861        C862   1.398       .  A
C861        H869   1.083       .  S
C862        H870   1.081       .  S
C863        H871   1.086       .  S
C863        C864   1.347       .  D
C864        H872   1.085       .  S
C865        H873   1.087       .  S
C865        C866   1.346       .  D
C866        H874   1.085       .  S
C875        C883   1.493       .  S
C875        C876   1.403       .  A
C875        C880   1.410       .  A
C876        C877   1.401       .  A
C876        H885   1.083       .  S
C877        C878   1.411       .  A
C877        H886   1.081       .  S
C878        C881   1.494       .  S
C878        C879   1.403       .  A
C879        C880   1.399       .  A
C879        H887   1.083       .  S
C880        H888   1.081       .  S
C881        H889   1.084       .  S
C881        C882   1.348       .  D
C882        H890   1.084       .  S
C883        H891   1.087       .  S
C883        C884   1.344       .  D
C884        H892   1.085       .  S
C893        C901   1.490       .  S
C893        C894   1.402       .  A
C893        C898   1.410       .  A
C894        C895   1.398       .  A
C894        H903   1.084       .  S
C895        C896   1.410       .  A
C895        H904   1.081       .  S
C896        C899   1.490       .  S
C896        C897   1.403       .  A
C897        C898   1.399       .  A
C897        H905   1.083       .  S
C898        H906   1.081       .  S
C899        H907   1.087       .  S
C899        C900   1.344       .  D
C900        H908   1.084       .  S
C901        H909   1.087       .  S
C901        C902   1.344       .  D
C902        H910   1.084       .  S
C911        C919   1.480       .  S
C911        C912   1.407       .  A
C911        C916   1.401       .  A
C912        C913   1.406       .  A
C912        H921   1.082       .  S
C913        C914   1.411       .  A
C913        H922   1.081       .  S
C914        C917   1.485       .  S
C914        C915   1.401       .  A
C915        C916   1.389       .  A
C915        H923   1.084       .  S
C916        H924   1.084       .  S
C917        H925   1.087       .  S
C917        C918   1.346       .  D
C918        H926   1.084       .  S
C919        H927   1.088       .  S
C919        C920   1.349       .  D
C920        H928   1.085       .  S
C929        C937   1.491       .  S
C929        C930   1.404       .  A
C929        C934   1.408       .  A
C930        C931   1.402       .  A
C930        H939   1.083       .  S
C931        C932   1.409       .  A
C931        H940   1.081       .  S
C932        C935   1.488       .  S
C932        C933   1.402       .  A
C933        C934   1.397       .  A
C933        H941   1.084       .  S
C934        H942   1.082       .  S
C935        H943   1.087       .  S
C935        C936   1.347       .  D
C936        H944   1.085       .  S
C937        H945   1.083       .  S
C937        C938   1.349       .  D
C938        H946   1.085       .  S
C947        C955   1.488       .  S
C947        C948   1.403       .  A
C947        C952   1.408       .  A
C948        C949   1.399       .  A
C948        H957   1.083       .  S
C949        C950   1.408       .  A
C949        H958   1.082       .  S
C950        C953   1.489       .  S
C950        C951   1.403       .  A
C951        C952   1.401       .  A
C951        H959   1.083       .  S
C952        H960   1.082       .  S
C953        H961   1.087       .  S
C953        C954   1.346       .  D
C954        H962   1.086       .  S
C955        H963   1.086       .  S
C955        C956   1.348       .  D
C956        H964   1.086       .  S
C965        C973   1.493       .  S
C965        C966   1.405       .  A
C965        C970   1.407       .  A
C966        C967   1.402       .  A
C966        H975   1.083       .  S
C967        C968   1.408       .  A
C967        H976   1.082       .  S
C968        C971   1.492       .  S
C968        C969   1.404       .  A
C969        C970   1.400       .  A
C969        H977   1.083       .  S
C970        H978   1.081       .  S
C971        H979   1.085       .  S
C971        C972   1.350       .  D
C972        H980   1.085       .  S
C973        H981   1.087       .  S
C973        C974   1.349       .  D
C974        H982   1.085       .  S
C983        C991   1.482       .  S
C983        C984   1.400       .  A
C983        C988   1.408       .  A
C984        C985   1.393       .  A
C984        H993   1.084       .  S
C985        C986   1.409       .  A
C985        H994   1.081       .  S
C986        C989   1.487       .  S
C986        C987   1.404       .  A
C987        C988   1.399       .  A
C987        H995   1.083       .  S
C988        H996   1.082       .  S
C989        H997   1.087       .  S
C989        C990   1.344       .  D
C990        H998   1.084       .  S
C991        H999   1.087       .  S
C991        C992   1.344       .  D
C992       H1000   1.085       .  S
C1001      C1009   1.497       .  S
C1001      C1002   1.406       .  A
C1001      C1006   1.411       .  A
C1002      C1003   1.399       .  A
C1002      H1011   1.083       .  S
C1003      C1004   1.406       .  A
C1003      H1012   1.082       .  S
C1004      C1007   1.491       .  S
C1004      C1005   1.404       .  A
C1005      C1006   1.403       .  A
C1005      H1013   1.083       .  S
C1006      H1014   1.079       .  S
C1007      H1015   1.087       .  S
C1007      C1008   1.348       .  D
C1008      H1016   1.086       .  S
C1009      H1017   1.085       .  S
C1009      C1010   1.351       .  D
C1010      H1018   1.083       .  S
C1019      C1027   1.489       .  S
C1019      C1020   1.403       .  A
C1019      C1024   1.408       .  A
C1020      C1021   1.400       .  A
C1020      H1029   1.083       .  S
C1021      C1022   1.410       .  A
C1021      H1030   1.080       .  S
C1022      C1025   1.491       .  S
C1022      C1023   1.403       .  A
C1023      C1024   1.397       .  A
C1023      H1031   1.083       .  S
C1024      H1032   1.081       .  S
C1025      H1033   1.084       .  S
C1025      C1026   1.347       .  D
C1026      H1034   1.084       .  S
C1027      H1035   1.087       .  S
C1027      C1028   1.345       .  D
C1028      H1036   1.085       .  S
C1037      C1045   1.484       .  S
C1037      C1038   1.402       .  A
C1037      C1042   1.408       .  A
C1038      C1039   1.394       .  A
C1038      H1047   1.084       .  S
C1039      C1040   1.408       .  A
C1039      H1048   1.081       .  S
C1040      C1043   1.486       .  S
C1040      C1041   1.403       .  A
C1041      C1042   1.400       .  A
C1041      H1049   1.083       .  S
C1042      H1050   1.081       .  S
C1043      H1051   1.087       .  S
C1043      C1044   1.344       .  D
C1044      H1052   1.084       .  S
C1045      H1053   1.086       .  S
C1045      C1046   1.346       .  D
C1046      H1054   1.084       .  S
C1055      C1063   1.492       .  S
C1055      C1056   1.404       .  A
C1055      C1060   1.409       .  A
C1056      C1057   1.399       .  A
C1056      H1065   1.083       .  S
C1057      C1058   1.408       .  A
C1057      H1066   1.082       .  S
C1058      C1061   1.491       .  S
C1058      C1059   1.404       .  A
C1059      C1060   1.402       .  A
C1059      H1067   1.083       .  S
C1060      H1068   1.081       .  S
C1061      H1069   1.086       .  S
C1061      C1062   1.347       .  D
C1062      H1070   1.086       .  S
C1063      H1071   1.087       .  S
C1063      C1064   1.349       .  D
C1064      H1072   1.084       .  S
C1073      C1081   1.482       .  S
C1073      C1074   1.401       .  A
C1073      C1078   1.408       .  A
C1074      C1075   1.395       .  A
C1074      H1083   1.084       .  S
C1075      C1076   1.407       .  A
C1075      H1084   1.083       .  S
C1076      C1079   1.486       .  S
C1076      C1077   1.404       .  A
C1077      C1078   1.404       .  A
C1077      H1085   1.083       .  S
C1078      H1086   1.082       .  S
C1079      H1087   1.086       .  S
C1079      C1080   1.344       .  D
C1080      H1088   1.087       .  S
C1081      H1089   1.087       .  S
C1081      C1082   1.347       .  D
C1082      H1090   1.086       .  S
C1091      C1099   1.495       .  S
C1091      C1092   1.404       .  A
C1091      C1096   1.409       .  A
C1092      C1093   1.401       .  A
C1092      H1101   1.083       .  S
C1093      C1094   1.410       .  A
C1093      H1102   1.080       .  S
C1094      C1097   1.496       .  S
C1094      C1095   1.404       .  A
C1095      C1096   1.400       .  A
C1095      H1103   1.083       .  S
C1096      H1104   1.081       .  S
C1097      H1105   1.087       .  S
C1097      C1098   1.348       .  D
C1098      H1106   1.083       .  S
C1099      H1107   1.083       .  S
C1099      C1100   1.350       .  D
C1100      H1108   1.085       .  S
C1109      C1117   1.485       .  S
C1109      C1110   1.404       .  A
C1109      C1114   1.405       .  A
C1110      C1111   1.401       .  A
C1110      H1119   1.083       .  S
C1111      C1112   1.406       .  A
C1111      H1120   1.083       .  S
C1112      C1115   1.487       .  S
C1112      C1113   1.404       .  A
C1113      C1114   1.401       .  A
C1113      H1121   1.083       .  S
C1114      H1122   1.083       .  S
C1115      H1123   1.087       .  S
C1115      C1116   1.347       .  D
C1116      H1124   1.086       .  S
C1117      H1125   1.087       .  S
C1117      C1118   1.345       .  D
C1118      H1126   1.087       .  S
C1127      C1135   1.491       .  S
C1127      C1128   1.404       .  A
C1127      C1132   1.408       .  A
C1128      C1129   1.398       .  A
C1128      H1137   1.084       .  S
C1129      C1130   1.407       .  A
C1129      H1138   1.082       .  S
C1130      C1133   1.491       .  S
C1130      C1131   1.405       .  A
C1131      C1132   1.402       .  A
C1131      H1139   1.083       .  S
C1132      H1140   1.081       .  S
C1133      H1141   1.085       .  S
C1133      C1134   1.349       .  D
C1134      H1142   1.085       .  S
C1135      H1143   1.087       .  S
C1135      C1136   1.349       .  D
C1136      H1144   1.084       .  S
C1145      C1153   1.490       .  S
C1145      C1146   1.403       .  A
C1145      C1150   1.408       .  A
C1146      C1147   1.399       .  A
C1146      H1155   1.084       .  S
C1147      C1148   1.410       .  A
C1147      H1156   1.080       .  S
C1148      C1151   1.495       .  S
C1148      C1149   1.405       .  A
C1149      C1150   1.400       .  A
C1149      H1157   1.083       .  S
C1150      H1158   1.081       .  S
C1151      H1159   1.084       .  S
C1151      C1152   1.349       .  D
C1152      H1160   1.083       .  S
C1153      H1161   1.087       .  S
C1153      C1154   1.347       .  D
C1154      H1162   1.084       .  S
C1163      C1171   1.490       .  S
C1163      C1164   1.404       .  A
C1163      C1168   1.407       .  A
C1164      C1165   1.404       .  A
C1164      H1173   1.083       .  S
C1165      C1166   1.410       .  A
C1165      H1174   1.080       .  S
C1166      C1169   1.491       .  S
C1166      C1167   1.404       .  A
C1167      C1168   1.395       .  A
C1167      H1175   1.084       .  S
C1168      H1176   1.082       .  S
C1169      H1177   1.085       .  S
C1169      C1170   1.349       .  D
C1170      H1178   1.084       .  S
C1171      H1179   1.086       .  S
C1171      C1172   1.345       .  D
C1172      H1180   1.086       .  S
C1181      C1189   1.481       .  S
C1181      C1182   1.409       .  A
C1181      C1186   1.400       .  A
C1182      C1183   1.405       .  A
C1182      H1191   1.082       .  S
C1183      C1184   1.408       .  A
C1183      H1192   1.082       .  S
C1184      C1187   1.480       .  S
C1184      C1185   1.401       .  A
C1185      C1186   1.389       .  A
C1185      H1193   1.084       .  S
C1186      H1194   1.084       .  S
C1187      H1195   1.088       .  S
C1187      C1188   1.347       .  D
C1188      H1196   1.085       .  S
C1189      H1197   1.088       .  S
C1189      C1190   1.344       .  D
C1190      H1198   1.085       .  S
C1199      C1207   1.489       .  S
C1199      C1200   1.407       .  A
C1199      C1204   1.405       .  A
C1200      C1201   1.406       .  A
C1200      H1209   1.082       .  S
C1201      C1202   1.410       .  A
C1201      H1210   1.082       .  S
C1202      C1205   1.492       .  S
C1202      C1203   1.402       .  A
C1203      C1204   1.398       .  A
C1203      H1211   1.083       .  S
C1204      H1212   1.083       .  S
C1205      H1213   1.087       .  S
C1205      C1206   1.347       .  D
C1206      H1214   1.086       .  S
C1207      H1215   1.088       .  S
C1207      C1208   1.351       .  D
C1208      H1216   1.086       .  S
C1217      C1225   1.490       .  S
C1217      C1218   1.404       .  A
C1217      C1222   1.409       .  A
C1218      C1219   1.402       .  A
C1218      H1227   1.083       .  S
C1219      C1220   1.409       .  A
C1219      H1228   1.082       .  S
C1220      C1223   1.486       .  S
C1220      C1221   1.401       .  A
C1221      C1222   1.395       .  A
C1221      H1229   1.084       .  S
C1222      H1230   1.081       .  S
C1223      H1231   1.087       .  S
C1223      C1224   1.345       .  D
C1224      H1232   1.085       .  S
C1225      H1233   1.087       .  S
C1225      C1226   1.345       .  D
C1226      H1234   1.085       .  S
C1235      C1243   1.489       .  S
C1235      C1236   1.404       .  A
C1235      C1240   1.408       .  A
C1236      C1237   1.399       .  A
C1236      H1245   1.084       .  S
C1237      C1238   1.409       .  A
C1237      H1246   1.081       .  S
C1238      C1241   1.490       .  S
C1238      C1239   1.403       .  A
C1239      C1240   1.399       .  A
C1239      H1247   1.083       .  S
C1240      H1248   1.081       .  S
C1241      H1249   1.087       .  S
C1241      C1242   1.346       .  D
C1242      H1250   1.084       .  S
C1243      H1251   1.087       .  S
C1243      C1244   1.348       .  D
C1244      H1252   1.085       .  S
C1253      C1261   1.482       .  S
C1253      C1254   1.403       .  A
C1253      C1258   1.406       .  A
C1254      C1255   1.399       .  A
C1254      H1263   1.083       .  S
C1255      C1256   1.405       .  A
C1255      H1264   1.083       .  S
C1256      C1259   1.480       .  S
C1256      C1257   1.403       .  A
C1257      C1258   1.400       .  A
C1257      H1265   1.083       .  S
C1258      H1266   1.083       .  S
C1259      H1267   1.087       .  S
C1259      C1260   1.344       .  D
C1260      H1268   1.086       .  S
C1261      H1269   1.087       .  S
C1261      C1262   1.344       .  D
C1262      H1270   1.086       .  S
C1271      C1279   1.485       .  S
C1271      C1272   1.404       .  A
C1271      C1276   1.405       .  A
C1272      C1273   1.404       .  A
C1272      H1281   1.083       .  S
C1273      C1274   1.408       .  A
C1273      H1282   1.082       .  S
C1274      C1277   1.483       .  S
C1274      C1275   1.402       .  A
C1275      C1276   1.393       .  A
C1275      H1283   1.084       .  S
C1276      H1284   1.083       .  S
C1277      H1285   1.088       .  S
C1277      C1278   1.348       .  D
C1278      H1286   1.085       .  S
C1279      H1287   1.086       .  S
C1279      C1280   1.345       .  D
C1280      H1288   1.087       .  S
C1289      C1297   1.488       .  S
C1289      C1290   1.404       .  A
C1289      C1294   1.408       .  A
C1290      C1291   1.399       .  A
C1290      H1299   1.083       .  S
C1291      C1292   1.408       .  A
C1291      H1300   1.082       .  S
C1292      C1295   1.487       .  S
C1292      C1293   1.403       .  A
C1293      C1294   1.399       .  A
C1293      H1301   1.083       .  S
C1294      H1302   1.081       .  S
C1295      H1303   1.086       .  S
C1295      C1296   1.347       .  D
C1296      H1304   1.086       .  S
C1297      H1305   1.087       .  S
C1297      C1298   1.347       .  D
C1298      H1306   1.085       .  S
C1307      C1315   1.487       .  S
C1307      C1308   1.404       .  A
C1307      C1312   1.407       .  A
C1308      C1309   1.403       .  A
C1308      H1317   1.083       .  S
C1309      C1310   1.407       .  A
C1309      H1318   1.082       .  S
C1310      C1313   1.483       .  S
C1310      C1311   1.401       .  A
C1311      C1312   1.396       .  A
C1311      H1319   1.084       .  S
C1312      H1320   1.082       .  S
C1313      H1321   1.087       .  S
C1313      C1314   1.346       .  D
C1314      H1322   1.086       .  S
C1315      H1323   1.087       .  S
C1315      C1316   1.345       .  D
C1316      H1324   1.087       .  S
C1325      C1333   1.487       .  S
C1325      C1326   1.404       .  A
C1325      C1330   1.408       .  A
C1326      C1327   1.401       .  A
C1326      H1335   1.083       .  S
C1327      C1328   1.407       .  A
C1327      H1336   1.082       .  S
C1328      C1331   1.484       .  S
C1328      C1329   1.402       .  A
C1329      C1330   1.397       .  A
C1329      H1337   1.084       .  S
C1330      H1338   1.081       .  S
C1331      H1339   1.087       .  S
C1331      C1332   1.346       .  D
C1332      H1340   1.086       .  S
C1333      H1341   1.087       .  S
C1333      C1334   1.346       .  D
C1334      H1342   1.085       .  S
C1343      C1351   1.488       .  S
C1343      C1344   1.403       .  A
C1343      C1348   1.408       .  A
C1344      C1345   1.399       .  A
C1344      H1353   1.083       .  S
C1345      C1346   1.408       .  A
C1345      H1354   1.081       .  S
C1346      C1349   1.489       .  S
C1346      C1347   1.404       .  A
C1347      C1348   1.400       .  A
C1347      H1355   1.083       .  S
C1348      H1356   1.082       .  S
C1349      H1357   1.087       .  S
C1349      C1350   1.346       .  D
C1350      H1358   1.085       .  S
C1351      H1359   1.086       .  S
C1351      C1352   1.348       .  D
C1352      H1360   1.086       .  S
C1361      C1369   1.491       .  S
C1361      C1362   1.403       .  A
C1361      C1366   1.408       .  A
C1362      C1363   1.401       .  A
C1362      H1371   1.083       .  S
C1363      C1364   1.410       .  A
C1363      H1372   1.081       .  S
C1364      C1367   1.493       .  S
C1364      C1365   1.404       .  A
C1365      C1366   1.400       .  A
C1365      H1373   1.083       .  S
C1366      H1374   1.082       .  S
C1367      H1375   1.085       .  S
C1367      C1368   1.349       .  D
C1368      H1376   1.085       .  S
C1369      H1377   1.087       .  S
C1369      C1370   1.346       .  D
C1370      H1378   1.086       .  S
C1379      C1387   1.491       .  S
C1379      C1380   1.405       .  A
C1379      C1384   1.407       .  A
C1380      C1381   1.403       .  A
C1380      H1389   1.083       .  S
C1381      C1382   1.408       .  A
C1381      H1390   1.081       .  S
C1382      C1385   1.490       .  S
C1382      C1383   1.403       .  A
C1383      C1384   1.397       .  A
C1383      H1391   1.083       .  S
C1384      H1392   1.081       .  S
C1385      H1393   1.086       .  S
C1385      C1386   1.350       .  D
C1386      H1394   1.085       .  S
C1387      H1395   1.087       .  S
C1387      C1388   1.348       .  D
C1388      H1396   1.085       .  S
C1397      C1405   1.490       .  S
C1397      C1398   1.403       .  A
C1397      C1402   1.410       .  A
C1398      C1399   1.395       .  A
C1398      H1407   1.084       .  S
C1399      C1400   1.407       .  A
C1399      H1408   1.081       .  S
C1400      C1403   1.489       .  S
C1400      C1401   1.403       .  A
C1401      C1402   1.402       .  A
C1401      H1409   1.083       .  S
C1402      H1410   1.080       .  S
C1403      H1411   1.085       .  S
C1403      C1404   1.347       .  D
C1404      H1412   1.085       .  S
C1405      H1413   1.087       .  S
C1405      C1406   1.347       .  D
C1406      H1414   1.083       .  S
C1415      C1423   1.488       .  S
C1415      C1416   1.403       .  A
C1415      C1420   1.408       .  A
C1416      C1417   1.398       .  A
C1416      H1425   1.083       .  S
C1417      C1418   1.407       .  A
C1417      H1426   1.082       .  S
C1418      C1421   1.488       .  S
C1418      C1419   1.403       .  A
C1419      C1420   1.400       .  A
C1419      H1427   1.083       .  S
C1420      H1428   1.081       .  S
C1421      H1429   1.086       .  S
C1421      C1422   1.346       .  D
C1422      H1430   1.086       .  S
C1423      H1431   1.087       .  S
C1423      C1424   1.346       .  D
C1424      H1432   1.085       .  S
C1433      C1441   1.492       .  S
C1433      C1434   1.404       .  A
C1433      C1438   1.409       .  A
C1434      C1435   1.400       .  A
C1434      H1443   1.083       .  S
C1435      C1436   1.408       .  A
C1435      H1444   1.082       .  S
C1436      C1439   1.492       .  S
C1436      C1437   1.404       .  A
C1437      C1438   1.402       .  A
C1437      H1445   1.083       .  S
C1438      H1446   1.082       .  S
C1439      H1447   1.087       .  S
C1439      C1440   1.347       .  D
C1440      H1448   1.086       .  S
C1441      H1449   1.085       .  S
C1441      C1442   1.349       .  D
C1442      H1450   1.085       .  S
C1451      C1459   1.491       .  S
C1451      C1452   1.402       .  A
C1451      C1456   1.408       .  A
C1452      C1453   1.398       .  A
C1452      H1461   1.084       .  S
C1453      C1454   1.410       .  A
C1453      H1462   1.080       .  S
C1454      C1457   1.497       .  S
C1454      C1455   1.406       .  A
C1455      C1456   1.403       .  A
C1455      H1463   1.083       .  S
C1456      H1464   1.081       .  S
C1457      H1465   1.086       .  S
C1457      C1458   1.349       .  D
C1458      H1466   1.083       .  S
C1459      H1467   1.087       .  S
C1459      C1460   1.347       .  D
C1460      H1468   1.085       .  S
C1469      C1477   1.489       .  S
C1469      C1470   1.403       .  A
C1469      C1474   1.408       .  A
C1470      C1471   1.399       .  A
C1470      H1479   1.083       .  S
C1471      C1472   1.408       .  A
C1471      H1480   1.081       .  S
C1472      C1475   1.491       .  S
C1472      C1473   1.404       .  A
C1473      C1474   1.400       .  A
C1473      H1481   1.083       .  S
C1474      H1482   1.082       .  S
C1475      H1483   1.085       .  S
C1475      C1476   1.348       .  D
C1476      H1484   1.085       .  S
C1477      H1485   1.087       .  S
C1477      C1478   1.347       .  D
C1478      H1486   1.085       .  S
C1487      C1495   1.493       .  S
C1487      C1488   1.410       .  A
C1487      C1492   1.402       .  A
C1488      C1489   1.403       .  A
C1488      H1497   1.081       .  S
C1489      C1490   1.409       .  A
C1489      H1498   1.081       .  S
C1490      C1493   1.493       .  S
C1490      C1491   1.405       .  A
C1491      C1492   1.398       .  A
C1491      H1499   1.083       .  S
C1492      H1500   1.083       .  S
C1493      H1501   1.086       .  S
C1493      C1494   1.351       .  D
C1494      H1502   1.084       .  S
C1495      H1503   1.087       .  S
C1495      C1496   1.346       .  D
C1496      H1504   1.085       .  S
C1505      C1513   1.489       .  S
C1505      C1506   1.403       .  A
C1505      C1510   1.409       .  A
C1506      C1507   1.396       .  A
C1506      H1515   1.084       .  S
C1507      C1508   1.407       .  A
C1507      H1516   1.082       .  S
C1508      C1511   1.490       .  S
C1508      C1509   1.404       .  A
C1509      C1510   1.403       .  A
C1509      H1517   1.083       .  S
C1510      H1518   1.081       .  S
C1511      H1519   1.087       .  S
C1511      C1512   1.346       .  D
C1512      H1520   1.086       .  S
C1513      H1521   1.086       .  S
C1513      C1514   1.348       .  D
C1514      H1522   1.085       .  S
C1523      C1531   1.490       .  S
C1523      C1524   1.405       .  A
C1523      C1528   1.408       .  A
C1524      C1525   1.400       .  A
C1524      H1533   1.083       .  S
C1525      C1526   1.407       .  A
C1525      H1534   1.082       .  S
C1526      C1529   1.489       .  S
C1526      C1527   1.404       .  A
C1527      C1528   1.400       .  A
C1527      H1535   1.083       .  S
C1528      H1536   1.081       .  S
C1529      H1537   1.086       .  S
C1529      C1530   1.348   1_556  D
C1530      H1538   1.086       .  S
C1531      H1539   1.087       .  S
C1531      C1532   1.348       .  D
C1532      H1540   1.085       .  S
C1541      C1549   1.494       .  S
C1541      C1542   1.403       .  A
C1541      C1546   1.411       .  A
C1542      C1543   1.400       .  A
C1542      H1551   1.083       .  S
C1543      C1544   1.409       .  A
C1543      H1552   1.081       .  S
C1544      C1547   1.492       .  S
C1544      C1545   1.403       .  A
C1545      C1546   1.401       .  A
C1545      H1553   1.083       .  S
C1546      H1554   1.081       .  S
C1547      H1555   1.087       .  S
C1547      C1548   1.345       .  D
C1548      H1556   1.085       .  S
C1549      H1557   1.087       .  S
C1549      C1550   1.346       .  D
C1550      H1558   1.084       .  S
C1559      C1567   1.492       .  S
C1559      C1560   1.403       .  A
C1559      C1564   1.409       .  A
C1560      C1561   1.400       .  A
C1560      H1569   1.083       .  S
C1561      C1562   1.410       .  A
C1561      H1570   1.081       .  S
C1562      C1565   1.496       .  S
C1562      C1563   1.405       .  A
C1563      C1564   1.401       .  A
C1563      H1571   1.083       .  S
C1564      H1572   1.082       .  S
C1565      H1573   1.087       .  S
C1565      C1566   1.348       .  D
C1566      H1574   1.084       .  S
C1567      H1575   1.087       .  S
C1567      C1568   1.347       .  D
C1568      H1576   1.085       .  S
C1577      C1585   1.487       .  S
C1577      C1578   1.404       .  A
C1577      C1582   1.407       .  A
C1578      C1579   1.399       .  A
C1578      H1587   1.083       .  S
C1579      C1580   1.408       .  A
C1579      H1588   1.081       .  S
C1580      C1583   1.489       .  S
C1580      C1581   1.403       .  A
C1581      C1582   1.397       .  A
C1581      H1589   1.083       .  S
C1582      H1590   1.081       .  S
C1583      H1591   1.086       .  S
C1583      C1584   1.347       .  D
C1584      H1592   1.082       .  S
C1585      H1593   1.087       .  S
C1585      C1586   1.347       .  D
C1586      H1594   1.084       .  S
C1595      C1603   1.485       .  S
C1595      C1596   1.405       .  A
C1595      C1600   1.405       .  A
C1596      C1597   1.402       .  A
C1596      H1605   1.083       .  S
C1597      C1598   1.405       .  A
C1597      H1606   1.083       .  S
C1598      C1601   1.483       .  S
C1598      C1599   1.404       .  A
C1599      C1600   1.401       .  A
C1599      H1607   1.083       .  S
C1600      H1608   1.083       .  S
C1601      H1609   1.087       .  S
C1601      C1602   1.346       .  D
C1602      H1610   1.086       .  S
C1603      H1611   1.087       .  S
C1603      C1604   1.347       .  D
C1604      H1612   1.086       .  S
C1613      C1621   1.486       .  S
C1613      C1614   1.402       .  A
C1613      C1618   1.409       .  A
C1614      C1615   1.393       .  A
C1614      H1623   1.084       .  S
C1615      C1616   1.402       .  A
C1615      H1624   1.084       .  S
C1616      C1619   1.486       .  S
C1616      C1617   1.409       .  A
C1617      C1618   1.406       .  A
C1617      H1625   1.081       .  S
C1618      H1626   1.081       .  S
C1619      H1627   1.087       .  S
C1619      C1620   1.348       .  D
C1620      H1628   1.085       .  S
C1621      H1629   1.088       .  S
C1621      C1622   1.348       .  D
C1622      H1630   1.085       .  S
C1631      C1639   1.485       .  S
C1631      C1632   1.405       .  A
C1631      C1636   1.407       .  A
C1632      C1633   1.402       .  A
C1632      H1641   1.083       .  S
C1633      C1634   1.407       .  A
C1633      H1642   1.082       .  S
C1634      C1637   1.481       .  S
C1634      C1635   1.401       .  A
C1635      C1636   1.394       .  A
C1635      H1643   1.084       .  S
C1636      H1644   1.082       .  S
C1637      H1645   1.088       .  S
C1637      C1638   1.345       .  D
C1638      H1646   1.086       .  S
C1639      H1647   1.087       .  S
C1639      C1640   1.345       .  D
C1640      H1648   1.086       .  S
C1649      C1657   1.488       .  S
C1649      C1650   1.404       .  A
C1649      C1654   1.407       .  A
C1650      C1651   1.399       .  A
C1650      H1659   1.084       .  S
C1651      C1652   1.408       .  A
C1651      H1660   1.080       .  S
C1652      C1655   1.487       .  S
C1652      C1653   1.404       .  A
C1653      C1654   1.397       .  A
C1653      H1661   1.084       .  S
C1654      H1662   1.081       .  S
C1655      H1663   1.087       .  S
C1655      C1656   1.347       .  D
C1656      H1664   1.084       .  S
C1657      H1665   1.087       .  S
C1657      C1658   1.348       .  D
C1658      H1666   1.084       .  S
C1667      C1675   1.481       .  S
C1667      C1668   1.401       .  A
C1667      C1672   1.407       .  A
C1668      C1669   1.392       .  A
C1668      H1677   1.084       .  S
C1669      C1670   1.407       .  A
C1669      H1678   1.082       .  S
C1670      C1673   1.486       .  S
C1670      C1671   1.404       .  A
C1671      C1672   1.403       .  A
C1671      H1679   1.083       .  S
C1672      H1680   1.082       .  S
C1673      H1681   1.087       .  S
C1673      C1674   1.344       .  D
C1674      H1682   1.086       .  S
C1675      H1683   1.088       .  S
C1675      C1676   1.346       .  D
C1676      H1684   1.085       .  S
C1685      C1693   1.494       .  S
C1685      C1686   1.405       .  A
C1685      C1690   1.408       .  A
C1686      C1687   1.401       .  A
C1686      H1695   1.083       .  S
C1687      C1688   1.410       .  A
C1687      H1696   1.079       .  S
C1688      C1691   1.497       .  S
C1688      C1689   1.406       .  A
C1689      C1690   1.401       .  A
C1689      H1697   1.083       .  S
C1690      H1698   1.081       .  S
C1691      H1699   1.086       .  S
C1691      C1692   1.351       .  D
C1692      H1700   1.081       .  S
C1693      H1701   1.086       .  S
C1693      C1694   1.350       .  D
C1694      H1702   1.083       .  S
C1703      C1711   1.485       .  S
C1703      C1704   1.402       .  A
C1703      C1708   1.407       .  A
C1704      C1705   1.399       .  A
C1704      H1713   1.083       .  S
C1705      C1706   1.409       .  A
C1705      H1714   1.081       .  S
C1706      C1709   1.487       .  S
C1706      C1707   1.402       .  A
C1707      C1708   1.396       .  A
C1707      H1715   1.084       .  S
C1708      H1716   1.082       .  S
C1709      H1717   1.084       .  S
C1709      C1710   1.346       .  D
C1710      H1718   1.084       .  S
C1711      H1719   1.087       .  S
C1711      C1712   1.343       .  D
C1712      H1720   1.085       .  S
C1721      C1729   1.492       .  S
C1721      C1722   1.402       .  A
C1721      C1726   1.410       .  A
C1722      C1723   1.398       .  A
C1722      H1731   1.083       .  S
C1723      C1724   1.410       .  A
C1723      H1732   1.081       .  S
C1724      C1727   1.494       .  S
C1724      C1725   1.403       .  A
C1725      C1726   1.402       .  A
C1725      H1733   1.083       .  S
C1726      H1734   1.081       .  S
C1727      H1735   1.086       .  S
C1727      C1728   1.345       .  D
C1728      H1736   1.085       .  S
C1729      H1737   1.086       .  S
C1729      C1730   1.347       .  D
C1730      H1738   1.085       .  S
C1739      C1747   1.480       .  S
C1739      C1740   1.403       .  A
C1739      C1744   1.405       .  A
C1740      C1741   1.400       .  A
C1740      H1749   1.083       .  S
C1741      C1742   1.405       .  A
C1741      H1750   1.083       .  S
C1742      C1745   1.477       .  S
C1742      C1743   1.402       .  A
C1743      C1744   1.398       .  A
C1743      H1751   1.083       .  S
C1744      H1752   1.083       .  S
C1745      H1753   1.088       .  S
C1745      C1746   1.344       .  D
C1746      H1754   1.086       .  S
C1747      H1755   1.087       .  S
C1747      C1748   1.343       .  D
C1748      H1756   1.087       .  S
C1757      C1765   1.482       .  S
C1757      C1758   1.408       .  A
C1757      C1762   1.402       .  A
C1758      C1759   1.404       .  A
C1758      H1767   1.082       .  S
C1759      C1760   1.408       .  A
C1759      H1768   1.082       .  S
C1760      C1763   1.483       .  S
C1760      C1761   1.401       .  A
C1761      C1762   1.393       .  A
C1761      H1769   1.084       .  S
C1762      H1770   1.084       .  S
C1763      H1771   1.088       .  S
C1763      C1764   1.344       .  D
C1764      H1772   1.085       .  S
C1765      H1773   1.088       .  S
C1765      C1766   1.347       .  D
C1766      H1774   1.085       .  S
C1775      C1783   1.488       .  S
C1775      C1776   1.409       .  A
C1775      C1780   1.403       .  A
C1776      C1777   1.407       .  A
C1776      H1785   1.081       .  S
C1777      C1778   1.410       .  A
C1777      H1786   1.081       .  S
C1778      C1781   1.488       .  S
C1778      C1779   1.401       .  A
C1779      C1780   1.392       .  A
C1779      H1787   1.084       .  S
C1780      H1788   1.084       .  S
C1781      H1789   1.088       .  S
C1781      C1782   1.348       .  D
C1782      H1790   1.085       .  S
C1783      H1791   1.088       .  S
C1783      C1784   1.351       .  D
C1784      H1792   1.084       .  S
C1793      C1801   1.492       .  S
C1793      C1794   1.404       .  A
C1793      C1798   1.409       .  A
C1794      C1795   1.398       .  A
C1794      H1803   1.084       .  S
C1795      C1796   1.408       .  A
C1795      H1804   1.082       .  S
C1796      C1799   1.491       .  S
C1796      C1797   1.404       .  A
C1797      C1798   1.401       .  A
C1797      H1805   1.083       .  S
C1798      H1806   1.080       .  S
C1799      H1807   1.084       .  S
C1799      C1800   1.349       .  D
C1800      H1808   1.085       .  S
C1801      H1809   1.087       .  S
C1801      C1802   1.348       .  D
C1802      H1810   1.083       .  S
C1811      C1819   1.491       .  S
C1811      C1812   1.404       .  A
C1811      C1816   1.408       .  A
C1812      C1813   1.402       .  A
C1812      H1821   1.083       .  S
C1813      C1814   1.409       .  A
C1813      H1822   1.081       .  S
C1814      C1817   1.490       .  S
C1814      C1815   1.403       .  A
C1815      C1816   1.397       .  A
C1815      H1823   1.084       .  S
C1816      H1824   1.082       .  S
C1817      H1825   1.085       .  S
C1817      C1818   1.350       .  D
C1818      H1826   1.085       .  S
C1819      H1827   1.087       .  S
C1819      C1820   1.346       .  D
C1820      H1828   1.085       .  S
C1829      C1837   1.489       .  S
C1829      C1830   1.404       .  A
C1829      C1834   1.407       .  A
C1830      C1831   1.402       .  A
C1830      H1839   1.083       .  S
C1831      C1832   1.409       .  A
C1831      H1840   1.081       .  S
C1832      C1835   1.488       .  S
C1832      C1833   1.403       .  A
C1833      C1834   1.397       .  A
C1833      H1841   1.084       .  S
C1834      H1842   1.082       .  S
C1835      H1843   1.086       .  S
C1835      C1836   1.348       .  D
C1836      H1844   1.085       .  S
C1837      H1845   1.087       .  S
C1837      C1838   1.345       .  D
C1838      H1846   1.086       .  S
C1847      C1855   1.490       .  S
C1847      C1848   1.404       .  A
C1847      C1852   1.407       .  A
C1848      C1849   1.403       .  A
C1848      H1857   1.083       .  S
C1849      C1850   1.410       .  A
C1849      H1858   1.082       .  S
C1850      C1853   1.490       .  S
C1850      C1851   1.403       .  A
C1851      C1852   1.397       .  A
C1851      H1859   1.083       .  S
C1852      H1860   1.082       .  S
C1853      H1861   1.085       .  S
C1853      C1854   1.348       .  D
C1854      H1862   1.085       .  S
C1855      H1863   1.086       .  S
C1855      C1856   1.346       .  D
C1856      H1864   1.086       .  S
C1865      C1873   1.492       .  S
C1865      C1866   1.402       .  A
C1865      C1870   1.409       .  A
C1866      C1867   1.400       .  A
C1866      H1875   1.083       .  S
C1867      C1868   1.413       .  A
C1867      H1876   1.079       .  S
C1868      C1871   1.499       .  S
C1868      C1869   1.404       .  A
C1869      C1870   1.400       .  A
C1869      H1877   1.083       .  S
C1870      H1878   1.081       .  S
C1871      H1879   1.084       .  S
C1871      C1872   1.349       .  D
C1872      H1880   1.082       .  S
C1873      H1881   1.087       .  S
C1873      C1874   1.345       .  D
C1874      H1882   1.085       .  S
C1883      C1891   1.492       .  S
C1883      C1884   1.404       .  A
C1883      C1888   1.409       .  A
C1884      C1885   1.400       .  A
C1884      H1893   1.083       .  S
C1885      C1886   1.407       .  A
C1885      H1894   1.082       .  S
C1886      C1889   1.490       .  S
C1886      C1887   1.403       .  A
C1887      C1888   1.401       .  A
C1887      H1895   1.083       .  S
C1888      H1896   1.081       .  S
C1889      H1897   1.086       .  S
C1889      C1890   1.347       .  D
C1890      H1898   1.086       .  S
C1891      H1899   1.087       .  S
C1891      C1892   1.348       .  D
C1892      H1900   1.085       .  S
C1901      C1909   1.486       .  S
C1901      C1902   1.402       .  A
C1901      C1906   1.407       .  A
C1902      C1903   1.398       .  A
C1902      H1911   1.083       .  S
C1903      C1904   1.410       .  A
C1903      H1912   1.079       .  S
C1904      C1907   1.490       .  S
C1904      C1905   1.404       .  A
C1905      C1906   1.397       .  A
C1905      H1913   1.084       .  S
C1906      H1914   1.081       .  S
C1907      H1915   1.085       .  S
C1907      C1908   1.347       .  D
C1908      H1916   1.083       .  S
C1909      H1917   1.087       .  S
C1909      C1910   1.345       .  D
C1910      H1918   1.085       .  S
C1919      C1927   1.483       .  S
C1919      C1920   1.402       .  A
C1919      C1924   1.407       .  A
C1920      C1921   1.397       .  A
C1920      H1929   1.083       .  S
C1921      C1922   1.408       .  A
C1921      H1930   1.081       .  S
C1922      C1925   1.486       .  S
C1922      C1923   1.404       .  A
C1923      C1924   1.398       .  A
C1923      H1931   1.083       .  S
C1924      H1932   1.082       .  S
C1925      H1933   1.087       .  S
C1925      C1926   1.346       .  D
C1926      H1934   1.084       .  S
C1927      H1935   1.087       .  S
C1927      C1928   1.346       .  D
C1928      H1936   1.086       .  S
C1937      C1945   1.492       .  S
C1937      C1938   1.409       .  A
C1937      C1942   1.402       .  A
C1938      C1939   1.405       .  A
C1938      H1947   1.081       .  S
C1939      C1940   1.410       .  A
C1939      H1948   1.080       .  S
C1940      C1943   1.496       .  S
C1940      C1941   1.405       .  A
C1941      C1942   1.397       .  A
C1941      H1949   1.084       .  S
C1942      H1950   1.083       .  S
C1943      H1951   1.086       .  S
C1943      C1944   1.352       .  D
C1944      H1952   1.083       .  S
C1945      H1953   1.087       .  S
C1945      C1946   1.349       .  D
C1946      H1954   1.085       .  S
C1955      C1963   1.492       .  S
C1955      C1956   1.404       .  A
C1955      C1960   1.408       .  A
C1956      C1957   1.401       .  A
C1956      H1965   1.083       .  S
C1957      C1958   1.408       .  A
C1957      H1966   1.082       .  S
C1958      C1961   1.493       .  S
C1958      C1959   1.405       .  A
C1959      C1960   1.402       .  A
C1959      H1967   1.083       .  S
C1960      H1968   1.082       .  S
C1961      H1969   1.086       .  S
C1961      C1962   1.349       .  D
C1962      H1970   1.086       .  S
C1963      H1971   1.087       .  S
C1963      C1964   1.348       .  D
C1964      H1972   1.085       .  S
C1973      C1981   1.488   1_556  S
C1973      C1974   1.403   1_556  A
C1973      C1978   1.408       .  A
C1974      C1975   1.398       .  A
C1974      H1983   1.083       .  S
C1975      C1976   1.407   1_554  A
C1975      H1984   1.081       .  S
C1976      C1979   1.488       .  S
C1976      C1977   1.404       .  A
C1977      C1978   1.400       .  A
C1977      H1985   1.083       .  S
C1978      H1986   1.081       .  S
C1979      H1987   1.087       .  S
C1979      C1980   1.347   1_556  D
C1980      H1988   1.085       .  S
C1981      H1989   1.085       .  S
C1981      C1982   1.348   1_554  D
C1982      H1990   1.085       .  S
C1991      C1999   1.489       .  S
C1991      C1992   1.403       .  A
C1991      C1996   1.409   1_455  A
C1992      C1993   1.398       .  A
C1992      H2001   1.083       .  S
C1993      C1994   1.408   1_455  A
C1993      H2002   1.082       .  S
C1994      C1997   1.491       .  S
C1994      C1995   1.404       .  A
C1995      C1996   1.402       .  A
C1995      H2003   1.083       .  S
C1996      H2004   1.081       .  S
C1997      H2005   1.086       .  S
C1997      C1998   1.346   1_655  D
C1998      H2006   1.086       .  S
C1999      H2007   1.087       .  S
C1999      C2000   1.348   1_456  D
C2000      H2008   1.085       .  S
C2009      C2017   1.486   1_655  S
C2009      C2010   1.402   1_655  A
C2009      C2014   1.409       .  A
C2010      C2011   1.396       .  A
C2010      H2019   1.084       .  S
C2011      C2012   1.408   1_455  A
C2011      H2020   1.081       .  S
C2012      C2015   1.485       .  S
C2012      C2013   1.402       .  A
C2013      C2014   1.399       .  A
C2013      H2021   1.083       .  S
C2014      H2022   1.081       .  S
C2015      H2023   1.087       .  S
C2015      C2016   1.344   1_655  D
C2016      H2024   1.085   1_545  S
C2017      H2025   1.086       .  S
C2017      C2018   1.344   1_455  D
C2018      H2026   1.085       .  S
C2027      C2035   1.492       .  S
C2027      C2028   1.404       .  A
C2027      C2032   1.409   1_656  A
C2028      C2029   1.400       .  A
C2028      H2037   1.083       .  S
C2029      C2030   1.408   1_655  A
C2029      H2038   1.081       .  S
C2030      C2033   1.490   1_556  S
C2030      C2031   1.404   1_556  A
C2031      C2032   1.400       .  A
C2031      H2039   1.083       .  S
C2032      H2040   1.081       .  S
C2033      H2041   1.087       .  S
C2033      C2034   1.347   1_454  D
C2034      H2042   1.085       .  S
C2035      H2043   1.085   1_655  S
C2035      C2036   1.349   1_556  D
C2036      H2044   1.085       .  S
C2045      C2053   1.484       .  S
C2045      C2046   1.403       .  A
C2045      C2050   1.407   1_545  A
C2046      C2047   1.398       .  A
C2046      H2055   1.083       .  S
C2047      C2048   1.407       .  A
C2047      H2056   1.082       .  S
C2048      C2051   1.484       .  S
C2048      C2049   1.403   1_545  A
C2049      C2050   1.398       .  A
C2049      H2057   1.083       .  S
C2050      H2058   1.082       .  S
C2051      H2059   1.087   1_545  S
C2051      C2052   1.346       .  D
C2052      H2060   1.085       .  S
C2053      H2061   1.086       .  S
C2053      C2054   1.346   1_545  D
C2054      H2062   1.086       .  S
C2063      C2071   1.488       .  S
C2063      C2064   1.403       .  A
C2063      C2068   1.408   1_445  A
C2064      C2065   1.400       .  A
C2064      H2073   1.083       .  S
C2065      C2066   1.408       .  A
C2065      H2074   1.082       .  S
C2066      C2069   1.487   1_455  S
C2066      C2067   1.403   1_445  A
C2067      C2068   1.399       .  A
C2067      H2075   1.083       .  S
C2068      H2076   1.082       .  S
C2069      H2077   1.087   1_545  S
C2069      C2070   1.346   1_655  D
C2070      H2078   1.086       .  S
C2071      H2079   1.086       .  S
C2071      C2072   1.346       .  D
C2072      H2080   1.086   1_455  S
C2081      C2089   1.490       .  S
C2081      C2082   1.404   1_455  A
C2081      C2086   1.409       .  A
C2082      C2083   1.400       .  A
C2082      H2091   1.083       .  S
C2083      C2084   1.408   1_655  A
C2083      H2092   1.082       .  S
C2084      C2087   1.488       .  S
C2084      C2085   1.403       .  A
C2085      C2086   1.400       .  A
C2085      H2093   1.083       .  S
C2086      H2094   1.081       .  S
C2087      H2095   1.086       .  S
C2087      C2088   1.347       .  D
C2088      H2096   1.086   1_455  S
C2089      H2097   1.087   1_455  S
C2089      C2090   1.346       .  D
C2090      H2098   1.085       .  S
C2099      C2107   1.491       .  S
C2099      C2100   1.404       .  A
C2099      C2104   1.407       .  A
C2100      C2101   1.404       .  A
C2100      H2109   1.083       .  S
C2101      C2102   1.409       .  A
C2101      H2110   1.082       .  S
C2102      C2105   1.490       .  S
C2102      C2103   1.403       .  A
C2103      C2104   1.398       .  A
C2103      H2111   1.083       .  S
C2104      H2112   1.082       .  S
C2105      H2113   1.086       .  S
C2105      C2106   1.348       .  D
C2106      H2114   1.086       .  S
C2107      H2115   1.087       .  S
C2107      C2108   1.346       .  D
C2108      H2116   1.086       .  S
C2117      C2125   1.486       .  S
C2117      C2118   1.402       .  A
C2117      C2122   1.408       .  A
C2118      C2119   1.398       .  A
C2118      H2127   1.083       .  S
C2119      C2120   1.408       .  A
C2119      H2128   1.082       .  S
C2120      C2123   1.488       .  S
C2120      C2121   1.403       .  A
C2121      C2122   1.400       .  A
C2121      H2129   1.083       .  S
C2122      H2130   1.082       .  S
C2123      H2131   1.087       .  S
C2123      C2124   1.345       .  D
C2124      H2132   1.086   1_455  S
C2125      H2133   1.086       .  S
C2125      C2126   1.347   1_455  D
C2126      H2134   1.086       .  S
C2135      C2143   1.493       .  S
C2135      C2136   1.404       .  A
C2135      C2140   1.409       .  A
C2136      C2137   1.399       .  A
C2136      H2145   1.083       .  S
C2137      C2138   1.408       .  A
C2137      H2146   1.082       .  S
C2138      C2141   1.492       .  S
C2138      C2139   1.405       .  A
C2139      C2140   1.403       .  A
C2139      H2147   1.083       .  S
C2140      H2148   1.081       .  S
C2141      H2149   1.087       .  S
C2141      C2142   1.347       .  D
C2142      H2150   1.086       .  S
C2143      H2151   1.085       .  S
C2143      C2144   1.349       .  D
C2144      H2152   1.085       .  S
C2153      C2161   1.490       .  S
C2153      C2154   1.404       .  A
C2153      C2158   1.407   1_455  A
C2154      C2155   1.402       .  A
C2154      H2163   1.083       .  S
C2155      C2156   1.409       .  A
C2155      H2164   1.081       .  S
C2156      C2159   1.490   1_455  S
C2156      C2157   1.404   1_455  A
C2157      C2158   1.398       .  A
C2157      H2165   1.083       .  S
C2158      H2166   1.082       .  S
C2159      H2167   1.085       .  S
C2159      C2160   1.349   1_655  D
C2160      H2168   1.085       .  S
C2161      H2169   1.087       .  S
C2161      C2162   1.347   1_455  D
C2162      H2170   1.085       .  S
C2171      C2179   1.484       .  S
C2171      C2172   1.403       .  A
C2171      C2176   1.405   1_655  A
C2172      C2173   1.401       .  A
C2172      H2181   1.083       .  S
C2173      C2174   1.409       .  A
C2173      H2182   1.082       .  S
C2174      C2177   1.486       .  S
C2174      C2175   1.403   1_655  A
C2175      C2176   1.396       .  A
C2175      H2183   1.083       .  S
C2176      H2184   1.083       .  S
C2177      H2185   1.086   1_655  S
C2177      C2178   1.348       .  D
C2178      H2186   1.085       .  S
C2179      H2187   1.087       .  S
C2179      C2180   1.345   1_655  D
C2180      H2188   1.086       .  S
C2189      C2197   1.487       .  S
C2189      C2190   1.401       .  A
C2189      C2194   1.407       .  A
C2190      C2191   1.400       .  A
C2190      H2199   1.083       .  S
C2191      C2192   1.412       .  A
C2191      H2200   1.079       .  S
C2192      C2195   1.495       .  S
C2192      C2193   1.404       .  A
C2193      C2194   1.398       .  A
C2193      H2201   1.083       .  S
C2194      H2202   1.082       .  S
C2195      H2203   1.084       .  S
C2195      C2196   1.348       .  D
C2196      H2204   1.082       .  S
C2197      H2205   1.087       .  S
C2197      C2198   1.344       .  D
C2198      H2206   1.086       .  S
C2207      C2215   1.488       .  S
C2207      C2208   1.403   1_565  A
C2207      C2212   1.406       .  A
C2208      C2209   1.399       .  A
C2208      H2217   1.083       .  S
C2209      C2210   1.409       .  A
C2209      H2218   1.079       .  S
C2210      C2213   1.493       .  S
C2210      C2211   1.406   1_545  A
C2211      C2212   1.398       .  A
C2211      H2219   1.083       .  S
C2212      H2220   1.081       .  S
C2213      H2221   1.085   1_545  S
C2213      C2214   1.351       .  D
C2214      H2222   1.082       .  S
C2215      H2223   1.087   1_565  S
C2215      C2216   1.348       .  D
C2216      H2224   1.084       .  S
C2225      C2233   1.490       .  S
C2225      C2226   1.404       .  A
C2225      C2230   1.409   1_565  A
C2226      C2227   1.397       .  A
C2226      H2235   1.083       .  S
C2227      C2228   1.406       .  A
C2227      H2236   1.082       .  S
C2228      C2231   1.487       .  S
C2228      C2229   1.403   1_565  A
C2229      C2230   1.401       .  A
C2229      H2237   1.083       .  S
C2230      H2238   1.081       .  S
C2231      H2239   1.087   1_565  S
C2231      C2232   1.346       .  D
C2232      H2240   1.086       .  S
C2233      H2241   1.086       .  S
C2233      C2234   1.348   1_565  D
C2234      H2242   1.084       .  S
C2243      C2251   1.491       .  S
C2243      C2244   1.404       .  A
C2243      C2248   1.411       .  A
C2244      C2245   1.396       .  A
C2244      H2253   1.083       .  S
C2245      C2246   1.406       .  A
C2245      H2254   1.083       .  S
C2246      C2249   1.486       .  S
C2246      C2247   1.402       .  A
C2247      C2248   1.402       .  A
C2247      H2255   1.083       .  S
C2248      H2256   1.080       .  S
C2249      H2257   1.087       .  S
C2249      C2250   1.344       .  D
C2250      H2258   1.086       .  S
C2251      H2259   1.085       .  S
C2251      C2252   1.348       .  D
C2252      H2260   1.084       .  S
C2261      C2269   1.496       .  S
C2261      C2262   1.404   1_565  A
C2261      C2266   1.409       .  A
C2262      C2263   1.401       .  A
C2262      H2271   1.083       .  S
C2263      C2264   1.412   1_545  A
C2263      H2272   1.078       .  S
C2264      C2267   1.502       .  S
C2264      C2265   1.407       .  A
C2265      C2266   1.402       .  A
C2265      H2273   1.083       .  S
C2266      H2274   1.081       .  S
C2267      H2275   1.084       .  S
C2267      C2268   1.352   1_565  D
C2268      H2276   1.081       .  S
C2269      H2277   1.087   1_565  S
C2269      C2270   1.349       .  D
C2270      H2278   1.084       .  S
C2279      C2287   1.489       .  S
C2279      C2280   1.402       .  A
C2279      C2284   1.409       .  A
C2280      C2281   1.397       .  A
C2280      H2289   1.083       .  S
C2281      C2282   1.409       .  A
C2281      H2290   1.081       .  S
C2282      C2285   1.491       .  S
C2282      C2283   1.404       .  A
C2283      C2284   1.401       .  A
C2283      H2291   1.083       .  S
C2284      H2292   1.081       .  S
C2285      H2293   1.084       .  S
C2285      C2286   1.349       .  D
C2286      H2294   1.085       .  S
C2287      H2295   1.087       .  S
C2287      C2288   1.345       .  D
C2288      H2296   1.085       .  S
C2297      C2305   1.490       .  S
C2297      C2298   1.403       .  A
C2297      C2302   1.408       .  A
C2298      C2299   1.402       .  A
C2298      H2307   1.083       .  S
C2299      C2300   1.411       .  A
C2299      H2308   1.080       .  S
C2300      C2303   1.492       .  S
C2300      C2301   1.403       .  A
C2301      C2302   1.397       .  A
C2301      H2309   1.084   1_556  S
C2302      H2310   1.082   1_556  S
C2303      H2311   1.084       .  S
C2303      C2304   1.349       .  D
C2304      H2312   1.084       .  S
C2305      H2313   1.087       .  S
C2305      C2306   1.345   1_556  D
C2306      H2314   1.085       .  S
C2315      C2323   1.493       .  S
C2315      C2316   1.404       .  A
C2315      C2320   1.408   1_556  A
C2316      C2317   1.402       .  A
C2316      H2325   1.083       .  S
C2317      C2318   1.411   1_556  A
C2317      H2326   1.080       .  S
C2318      C2321   1.496       .  S
C2318      C2319   1.405       .  A
C2319      C2320   1.399       .  A
C2319      H2327   1.083       .  S
C2320      H2328   1.081       .  S
C2321      H2329   1.084       .  S
C2321      C2322   1.351   1_554  D
C2322      H2330   1.083       .  S
C2323      H2331   1.087       .  S
C2323      C2324   1.347   1_556  D
C2324      H2332   1.085       .  S
C2333      C2341   1.490       .  S
C2333      C2334   1.403       .  A
C2333      C2338   1.409       .  A
C2334      C2335   1.400       .  A
C2334      H2343   1.083       .  S
C2335      C2336   1.409       .  A
C2335      H2344   1.082       .  S
C2336      C2339   1.487       .  S
C2336      C2337   1.402       .  A
C2337      C2338   1.397       .  A
C2337      H2345   1.083       .  S
C2338      H2346   1.081       .  S
C2339      H2347   1.087       .  S
C2339      C2340   1.344       .  D
C2340      H2348   1.085       .  S
C2341      H2349   1.084       .  S
C2341      C2342   1.348       .  D
C2342      H2350   1.085       .  S
C2351      C2359   1.488       .  S
C2351      C2352   1.403       .  A
C2351      C2356   1.409       .  A
C2352      C2353   1.395       .  A
C2352      H2361   1.084       .  S
C2353      C2354   1.406       .  A
C2353      H2362   1.082       .  S
C2354      C2357   1.487       .  S
C2354      C2355   1.403       .  A
C2355      C2356   1.401       .  A
C2355      H2363   1.083       .  S
C2356      H2364   1.080       .  S
C2357      H2365   1.087       .  S
C2357      C2358   1.345       .  D
C2358      H2366   1.085       .  S
C2359      H2367   1.086       .  S
C2359      C2360   1.347       .  D
C2360      H2368   1.084       .  S
C2369      C2377   1.488       .  S
C2369      C2370   1.404       .  A
C2369      C2374   1.408       .  A
C2370      C2371   1.399       .  A
C2370      H2379   1.083   1_554  S
C2371      C2372   1.408       .  A
C2371      H2380   1.081   1_554  S
C2372      C2375   1.485       .  S
C2372      C2373   1.402       .  A
C2373      C2374   1.396       .  A
C2373      H2381   1.084       .  S
C2374      H2382   1.080       .  S
C2375      H2383   1.084       .  S
C2375      C2376   1.347       .  D
C2376      H2384   1.084       .  S
C2377      H2385   1.087       .  S
C2377      C2378   1.346       .  D
C2378      H2386   1.084       .  S
C2387      C2395   1.491       .  S
C2387      C2388   1.404   1_554  A
C2387      C2392   1.410       .  A
C2388      C2389   1.398       .  A
C2388      H2397   1.083       .  S
C2389      C2390   1.407   1_556  A
C2389      H2398   1.082       .  S
C2390      C2393   1.487       .  S
C2390      C2391   1.403       .  A
C2391      C2392   1.400       .  A
C2391      H2399   1.083       .  S
C2392      H2400   1.081       .  S
C2393      H2401   1.087       .  S
C2393      C2394   1.345       .  D
C2394      H2402   1.086   1_554  S
C2395      H2403   1.085       .  S
C2395      C2396   1.348       .  D
C2396      H2404   1.084       .  S
