geometry optimzed in LAMMPS
_audit_creation_date              2020-11-30 
_audit_creation_method            'lammps2cif' 
_symmetry_space_group_name_H-M    'P1' 
_symmetry_Int_Tables_number       1 
_symmetry_cell_setting            triclinic 
loop_ 
_symmetry_equiv_pos_as_xyz 
  x,y,z 
_cell_length_a                    55.93123852 
_cell_length_b                    56.02855149811277 
_cell_length_c                    55.91961951614062 
_cell_angle_alpha                 89.98557422846277 
_cell_angle_beta                  90.18724150978106 
_cell_angle_gamma                 89.91169183758079 
loop_ 
_atom_site_label 
_atom_site_type_symbol 
_atom_site_fract_x 
_atom_site_fract_y 
_atom_site_fract_z 
_atom_site_charge 
C1          C  0.14969498  0.75411573  0.97662725     0.80600
N2          N  0.15941525  0.74933307  0.99831281    -0.77700
C3          C  0.14695831  0.75404605  0.01851033     0.83100
N4          N  0.12457693  0.76307736  0.01673023    -0.77600
C5          C  0.11458415  0.76788938  0.99514897     0.83200
N6          N  0.12738047  0.76355896  0.97501092    -0.79300
C7          C  0.32320362  0.60137369  0.02249153     0.80600
N8          N  0.32021089  0.57732711  0.02256793    -0.77700
C9          C  0.32078749  0.56500718  0.00168110     0.83100
N10         N  0.32382715  0.57679182  0.98073828    -0.77600
C11         C  0.32680328  0.60084772  0.98049158     0.83200
N12         N  0.32663073  0.61301278  0.00150968    -0.79300
C13         C  0.90146510  0.19409566  0.02756778     0.80600
N14         N  0.89174324  0.19795332  0.00568712    -0.77700
C15         C  0.90469053  0.19347432  0.98571303     0.83100
N16         N  0.92749622  0.18554469  0.98781454    -0.77600
C17         C  0.93739952  0.18168553  0.00964556     0.83200
N18         N  0.92419424  0.18585877  0.02954810    -0.79300
C19         C  0.72116786  0.34339021  0.98248808     0.80600
N20         N  0.71905964  0.36749031  0.98091177    -0.77700
C21         C  0.71713179  0.38092055  0.00100095     0.83100
N22         N  0.71779125  0.37024310  0.02275756    -0.77600
C23         C  0.72016036  0.34617288  0.02465787     0.83200
N24         N  0.72195263  0.33274902  0.00438883    -0.79300
C25         C  0.81288591  0.96068840  0.13019162     0.80600
N26         N  0.81067878  0.98171879  0.14203439    -0.77700
C27         C  0.81525159  0.00253054  0.13045425     0.83100
N28         N  0.82133252  0.00221285  0.10701508    -0.77600
C29         C  0.82307444  0.98127050  0.09500148     0.83200
N30         N  0.81864234  0.96061900  0.10671028    -0.79300
C31         C  0.65529596  0.99761084  0.30588248     0.80600
N32         N  0.66783156  0.97677893  0.30617046    -0.77700
C33         C  0.65653391  0.95561575  0.30281205     0.83100
N34         N  0.63250087  0.95517840  0.29937538    -0.77600
C35         C  0.61974386  0.97583376  0.29916842     0.83200
N36         N  0.63123564  0.99696456  0.30223864    -0.79300
C37         C  0.24902258  0.99326980  0.87962087     0.80600
N38         N  0.25402837  0.97215920  0.86873820    -0.77700
C39         C  0.24893096  0.95120549  0.87981012     0.83100
N40         N  0.23947834  0.95128257  0.90208667    -0.77600
C41         C  0.23477550  0.97221759  0.91327459     0.83200
N42         N  0.23936274  0.99306938  0.90187612    -0.79300
C43         C  0.40293524  0.95253731  0.68942754     0.80600
N44         N  0.39100963  0.97363138  0.69118039    -0.77700
C45         C  0.40300899  0.99468024  0.69072461     0.83100
N46         N  0.42718353  0.99467464  0.68830717    -0.77600
C47         C  0.43930629  0.97376639  0.68605745     0.83200
N48         N  0.42706339  0.95286722  0.68687303    -0.79300
C49         C  0.90134579  0.76949234  0.01453127     0.80600
N50         N  0.92414005  0.77714227  0.01704485    -0.77700
C51         C  0.93785691  0.78142149  0.99760428     0.83100
N52         N  0.92852312  0.77799571  0.97539926    -0.77600
C53         C  0.90549447  0.77071642  0.97273686     0.83200
N54         N  0.89204136  0.76601881  0.99236437    -0.79300
C55         C  0.72382824  0.59887406  0.01558640     0.80600
N56         N  0.71953531  0.57504666  0.01607261    -0.77700
C57         C  0.71940683  0.56193464  0.99564510     0.83100
N58         N  0.72299512  0.57333604  0.97450005    -0.77600
C59         C  0.72699479  0.59727335  0.97353296     0.83200
N60         N  0.72773193  0.60991165  0.99430152    -0.79300
C61         C  0.15108083  0.19317625  0.98543512     0.80600
N62         N  0.12777347  0.18661810  0.98409763    -0.77700
C63         C  0.11488472  0.18219289  0.00407227     0.83100
N64         N  0.12528827  0.18498218  0.02581842    -0.77600
C65         C  0.14851018  0.19161807  0.02756033     0.83200
N66         N  0.16138384  0.19547316  0.00736824    -0.79300
C67         C  0.32533197  0.34908030  0.98234230     0.80600
N68         N  0.31998108  0.37278182  0.98268840    -0.77700
C69         C  0.31656823  0.38474073  0.00357654     0.83100
N70         N  0.31846756  0.37231564  0.02432277    -0.77600
C71         C  0.32403786  0.34880270  0.02427317     0.83200
N72         N  0.32741586  0.33724772  0.00335176    -0.79300
C73         C  0.80343550  0.94453571  0.88094346     0.80600
N74         N  0.80896361  0.94511454  0.90463814    -0.77700
C75         C  0.80871677  0.96610436  0.91677575     0.83100
N76         N  0.80315503  0.98665421  0.90525000    -0.77600
C77         C  0.79757355  0.98615202  0.88169986     0.83200
N78         N  0.79761503  0.96520448  0.86969958    -0.79300
C79         C  0.65660526  0.99132637  0.69079733     0.80600
N80         N  0.63255794  0.99175985  0.68780847    -0.77700
C81         C  0.61987408  0.97117414  0.68763845     0.83100
N82         N  0.63129571  0.94997449  0.69068745    -0.77600
C83         C  0.65540185  0.94940953  0.69374531     0.83200
N84         N  0.66801609  0.97011840  0.69382756    -0.79300
C85         C  0.23168814  0.00239312  0.12694844     0.80600
N86         N  0.22409881  0.00372418  0.10388997    -0.77700
C87         C  0.22121838  0.98356065  0.09063360     0.83100
N88         N  0.22594161  0.96204148  0.10081320    -0.77600
C89         C  0.23323473  0.96063196  0.12389750     0.83200
N90         N  0.23640658  0.98081188  0.13687496    -0.79300
C91         C  0.40094868  0.95925254  0.29188553     0.80600
N92         N  0.42524927  0.95872455  0.29165865    -0.77700
C93         C  0.43826997  0.97916307  0.29180202     0.83100
N94         N  0.42659576  0.00046296  0.29211974    -0.77600
C95         C  0.40233352  0.00135173  0.29242608     0.83200
N96         N  0.38951785  0.98073136  0.29235980    -0.79300
C97         C  0.00944737  0.09116521  0.78903301     0.80600
N98         N  0.01001826  0.06779614  0.79507015    -0.77700
C99         C  0.03103495  0.05719862  0.80078490     0.83100
N100        N  0.05161354  0.06992636  0.79987106    -0.77600
C101        C  0.05119419  0.09337198  0.79378535     0.83200
N102        N  0.02998328  0.10397683  0.78844763    -0.79300
C103        C  0.00790039  0.28394004  0.63261837     0.80600
N104        N  0.02932044  0.28366823  0.64435645    -0.77700
C105        C  0.05027354  0.28599486  0.63218809     0.83100
N106        N  0.04952096  0.28893250  0.60806874    -0.77600
C107        C  0.02839142  0.28890323  0.59611941     0.83200
N108        N  0.00769146  0.28611770  0.60838350    -0.79300
C109        C  0.05144348  0.84687153  0.79015103     0.80600
N110        N  0.03169165  0.83419763  0.78400663    -0.77700
C111        C  0.00970915  0.84411851  0.78622271     0.83100
N112        N  0.00743306  0.86676877  0.79417197    -0.77600
C113        C  0.02701516  0.87973688  0.79989844     0.83200
N114        N  0.04907545  0.86975883  0.79784027    -0.79300
C115        C  0.01321803  0.66940896  0.62005175     0.80600
N116        N  0.03437825  0.67298168  0.63158415    -0.77700
C117        C  0.05552481  0.66887541  0.62030079     0.83100
N118        N  0.05547179  0.66162370  0.59707518    -0.77600
C119        C  0.03444433  0.65818974  0.58528841     0.83200
N120        N  0.01354043  0.66191157  0.59695890    -0.79300
C121        C  0.04499728  0.86120860  0.21305391     0.80600
N122        N  0.04433440  0.88433515  0.20602159    -0.77700
C123        C  0.02320172  0.89510797  0.20063478     0.83100
N124        N  0.00260577  0.88248141  0.20301202    -0.77600
C125        C  0.00321606  0.85935845  0.21031075     0.83200
N126        N  0.02443302  0.84872688  0.21526022    -0.79300
C127        C  0.04709416  0.65703398  0.37240699     0.80600
N128        N  0.02670487  0.66075177  0.35951110    -0.77700
C129        C  0.00480591  0.65723423  0.36945653     0.83100
N130        N  0.00342078  0.65042054  0.39273633    -0.77600
C131        C  0.02351629  0.64688429  0.40598746     0.83200
N132        N  0.04519372  0.65008972  0.39561292    -0.79300
C133        C  0.00499124  0.10412898  0.21852536     0.80600
N134        N  0.00780733  0.08178259  0.20939092    -0.77700
C135        C  0.02993766  0.07207779  0.20696153     0.83100
N136        N  0.04940823  0.08487023  0.21337943    -0.77600
C137        C  0.04695655  0.10719285  0.22226471     0.83200
N138        N  0.02476908  0.11667793  0.22520436    -0.79300
C139        C  0.04713611  0.28621988  0.37703762     0.80600
N140        N  0.04779370  0.28771333  0.40127358    -0.77700
C141        C  0.02753782  0.28687893  0.41454074     0.83100
N142        N  0.00613923  0.28409617  0.40320349    -0.77600
C143        C  0.00503839  0.28258560  0.37892078     0.83200
N144        N  0.02557345  0.28377880  0.36600114    -0.79300
C145        C  0.31629346  0.50434698  0.37700636     0.80600
N146        N  0.30857669  0.48348011  0.36779099    -0.77700
C147        C  0.31199011  0.46267717  0.37952214     0.83100
N148        N  0.32274147  0.46332149  0.40136187    -0.77600
C149        C  0.33021032  0.48434128  0.41105925     0.83200
N150        N  0.32709912  0.50478765  0.39859247    -0.79300
C151        C  0.14817881  0.45821877  0.20452136     0.80600
N152        N  0.12450440  0.45878543  0.19919054    -0.77700
C153        C  0.11332800  0.47984660  0.19480498     0.83100
N154        N  0.12601858  0.50043411  0.19584686    -0.77600
C155        C  0.14967947  0.50017527  0.20128010     0.83200
N156        N  0.16074433  0.47897568  0.20558693    -0.79300
O157        O  0.24867228  0.74111093  0.17743474    -0.86100
O158        O  0.22342356  0.70425543  0.30492548    -0.86300
O159        O  0.21900724  0.67978910  0.22413346    -0.87900
O160        O  0.19902860  0.75309386  0.24035506    -0.86700
O161        O  0.21755376  0.78516762  0.25772939    -0.86300
O162        O  0.25402614  0.65869104  0.22530000    -0.87600
O163        O  0.20097638  0.70734144  0.27059872    -0.86100
O164        O  0.21560234  0.72692721  0.19720223    -0.85700
Zr165      Zr  0.22733996  0.72025505  0.23831454     2.84300
O166        O  0.23863502  0.74101063  0.27287507    -1.07700
O167        O  0.26082870  0.71012788  0.21537365    -1.08400
C168        C  0.22661299  0.73450481  0.17850843     1.07000
C169        C  0.20360474  0.70287114  0.29312864     1.07000
C170        C  0.23126908  0.66038798  0.22146573     1.09900
C171        C  0.19919377  0.77470721  0.24833284     1.07700
H172        H  0.24347269  0.68128212  0.26554957     0.33300
O173        O  0.25212280  0.69546135  0.26091700    -1.28600
H174        H  0.23802821  0.76487863  0.21824896     0.33000
O175        O  0.24828102  0.75482740  0.22784459    -1.30300
O176        O  0.29761253  0.71833888  0.32291799    -0.86100
O177        O  0.32261442  0.75625657  0.19486998    -0.87600
O178        O  0.28567558  0.65724307  0.27064033    -0.86200
O179        O  0.25016279  0.78187348  0.30513637    -0.86200
O180        O  0.26028211  0.80433458  0.22986184    -0.85900
O181        O  0.29682759  0.67866292  0.19621744    -0.85700
O182        O  0.34595632  0.70695263  0.26220326    -0.86100
O183        O  0.32699736  0.78188383  0.27396647    -0.85600
O184        O  0.32784722  0.67501501  0.24441471    -0.86600
O185        O  0.29164437  0.80275862  0.27414622    -0.85800
O186        O  0.27012872  0.67494904  0.30408402    -0.86200
O187        O  0.29601466  0.71470022  0.17721125    -0.85900
O188        O  0.27507250  0.78649627  0.19608248    -0.85600
O189        O  0.25031774  0.74561472  0.32370343    -0.86000
O190        O  0.33039640  0.73367536  0.30355618    -0.86300
O191        O  0.34535354  0.75157636  0.22883484    -0.87600
Zr192      Zr  0.26403759  0.71649999  0.29504981     2.83100
Zr193      Zr  0.28196072  0.74466076  0.20529036     2.83500
Zr194      Zr  0.28588074  0.68564481  0.23806243     2.84100
Zr195      Zr  0.25984851  0.77540745  0.26250857     2.83400
Zr196      Zr  0.31873382  0.74070332  0.26207489     2.84200
O197        O  0.29366190  0.76552109  0.23964261    -1.08200
O198        O  0.29757375  0.70630697  0.27248339    -1.07700
C199        C  0.31962854  0.72517922  0.32208884     1.07000
C200        C  0.34272912  0.75626924  0.20626608     1.09600
C201        C  0.27885167  0.65705811  0.29263933     1.07200
C202        C  0.24765238  0.76841554  0.32387210     1.07500
C203        C  0.26653443  0.80453488  0.20761096     1.07100
C204        C  0.29953705  0.69195287  0.17747599     1.06700
C205        C  0.34595275  0.68524215  0.25455020     1.07100
C206        C  0.31456460  0.80119025  0.27670682     1.06600
H207        H  0.32081498  0.71510341  0.21849912     0.33300
O208        O  0.30704390  0.71991572  0.22768471    -1.29300
H209        H  0.29038408  0.75937365  0.29915138     0.33300
O210        O  0.28523001  0.75099684  0.28493777    -1.30700
C211        C  0.40315028  0.28214596  0.48461555     0.80600
N212        N  0.42503143  0.29241078  0.48641376    -0.77700
C213        C  0.43630224  0.29453456  0.50785808     0.83100
N214        N  0.42508316  0.28598654  0.52761672    -0.77600
C215        C  0.40311267  0.27570503  0.52627224     0.83200
N216        N  0.39229019  0.27362696  0.50455414    -0.79300
C217        C  0.22317014  0.10569438  0.48360051     0.80600
N218        N  0.22074158  0.08162051  0.48380019    -0.77700
C219        C  0.21900157  0.06978063  0.50485528     0.83100
N220        N  0.21998147  0.08205370  0.52568865    -0.77600
C221        C  0.22234164  0.10612575  0.52567213     0.83200
N222        N  0.22393781  0.11794872  0.50453838    -0.79300
O223        O  0.27074557  0.15091784  0.77857192    -0.86100
O224        O  0.30659302  0.27831713  0.80430522    -0.86300
O225        O  0.33555125  0.19907621  0.80562073    -0.87900
O226        O  0.26358937  0.21537623  0.83028353    -0.86700
O227        O  0.22877598  0.22823667  0.81285624    -0.86300
O228        O  0.35377760  0.19764365  0.76910879    -0.87600
O229        O  0.30751747  0.24326347  0.82570933    -0.86100
O230        O  0.28846216  0.16979117  0.81054130    -0.85700
Zr231      Zr  0.29396562  0.21150037  0.79955985     2.84300
O232        O  0.27205181  0.24562317  0.78924593    -1.07700
O233        O  0.30195711  0.18912277  0.76534092    -1.08400
C234        C  0.27922396  0.15149299  0.79999003     1.07000
C235        C  0.30970815  0.26606467  0.82365469     1.07000
C236        C  0.35375310  0.19485408  0.79203028     1.09900
C237        C  0.24126705  0.22119581  0.83102605     1.07700
H238        H  0.33129220  0.23971344  0.78198602     0.33300
O239        O  0.31673491  0.23503253  0.77392896    -1.28600
H240        H  0.24889992  0.19093754  0.79163523     0.33000
O241        O  0.25814757  0.20061049  0.78078011    -1.30300
O242        O  0.29066979  0.29676417  0.72969450    -1.07700
O243        O  0.25113991  0.17038423  0.70580426    -0.87600
O244        O  0.35451083  0.24402024  0.74161876    -0.86200
O245        O  0.22947926  0.27546292  0.78348600    -0.86200
O246        O  0.20714614  0.20261125  0.77061602    -0.85900
O247        O  0.33149513  0.16986547  0.72994295    -0.85700
O248        O  0.29968092  0.23554505  0.68066893    -0.86100
O249        O  0.22612506  0.24888274  0.70397973    -0.85600
O250        O  0.33350536  0.21926504  0.69765950    -0.86600
O251        O  0.20718842  0.24731908  0.74030705    -0.85800
O252        O  0.33630942  0.27836651  0.75444049    -0.86200
O253        O  0.29574972  0.15037153  0.73250555    -0.85900
O254        O  0.22561554  0.16870248  0.75765814    -0.85600
O255        O  0.26367687  0.29679423  0.77687172    -0.86000
O256        O  0.27192222  0.27749457  0.69882211    -0.86300
O257        O  0.25379269  0.20500925  0.68412161    -0.87600
Zr258      Zr  0.29463119  0.26912523  0.76329068     2.83100
Zr259      Zr  0.26620680  0.17893948  0.74603258     2.83500
Zr260      Zr  0.32502134  0.21222067  0.73973456     2.84100
Zr261      Zr  0.23633879  0.23464246  0.77040967     2.83400
Zr262      Zr  0.26772201  0.23619370  0.71029365     2.84200
O263        O  0.24420341  0.21282968  0.73560506    -1.08200
O264        O  0.30347007  0.24666738  0.72926031    -1.07700
C265        C  0.28139433  0.29607191  0.70847833     1.07000
C266        C  0.24909206  0.18263547  0.68628435     1.09600
C267        C  0.35466661  0.26641388  0.74706463     1.07200
C268        C  0.24152924  0.29509522  0.78324018     1.07500
C269        C  0.20737056  0.18005241  0.76601474     1.07100
C270        C  0.31844281  0.15080151  0.72862970     1.06700
C271        C  0.32174709  0.22871727  0.68014802     1.07100
C272        C  0.20752079  0.25117681  0.71751556     1.06600
H273        H  0.29345533  0.19268299  0.70591470     0.33300
O274        O  0.28955102  0.20173713  0.72008811    -1.29300
H275        H  0.24976083  0.27223525  0.73999150     0.33300
O276        O  0.25885113  0.25825913  0.74447793    -1.30700
C277        C  0.41129403  0.70154735  0.47670535     0.80600
N278        N  0.43386727  0.69248641  0.47644704    -0.77700
C279        C  0.44608623  0.68927334  0.49724680     0.83100
N280        N  0.43562392  0.69530191  0.51822979    -0.77600
C281        C  0.41303759  0.70409095  0.51894545     0.83200
N282        N  0.40100896  0.70708395  0.49799867    -0.79300
C283        C  0.22620145  0.85401930  0.52541136     0.80600
N284        N  0.22676484  0.84110933  0.50479191    -0.77700
C285        C  0.22487346  0.85241920  0.48330529     0.83100
N286        N  0.22202525  0.87647774  0.48258106    -0.77600
C287        C  0.22137522  0.88950748  0.50305240     0.83200
N288        N  0.22385152  0.87807894  0.52433982    -0.79300
C289        C  0.31288744  0.49172243  0.62136312     0.80600
N290        N  0.30759577  0.47071130  0.63223913    -0.77700
C291        C  0.31177629  0.44965734  0.62103860     0.83100
N292        N  0.32059752  0.44949245  0.59853662    -0.77600
C293        C  0.32542882  0.47029375  0.58722470     0.83200
N294        N  0.32178529  0.49128712  0.59878611    -0.79300
C295        C  0.15642381  0.45246665  0.80563664     0.80600
N296        N  0.16781622  0.47384821  0.80426015    -0.77700
C297        C  0.15504578  0.49452113  0.80318804     0.83100
N298        N  0.13071586  0.49356792  0.80309179    -0.77600
C299        C  0.11930890  0.47219548  0.80444379     0.83200
N300        N  0.13220027  0.45174401  0.80575603    -0.79300
O301        O  0.26226106  0.73284575  0.82413380    -0.86100
O302        O  0.23141508  0.69724274  0.69719549    -0.86300
O303        O  0.20922263  0.74249456  0.76420564    -0.87900
O304        O  0.23193537  0.66867019  0.77441640    -0.86700
O305        O  0.26783898  0.64902989  0.77212388    -0.86300
O306        O  0.22696926  0.77703489  0.75099109    -0.87600
O307        O  0.21064686  0.69918779  0.73231664    -0.86100
O308        O  0.22950850  0.71603004  0.80605216    -0.85700
Zr309      Zr  0.23881284  0.71051648  0.76393152     2.84300
O310        O  0.26314094  0.68741663  0.73913151    -1.07700
O311        O  0.25949242  0.74501243  0.77542471    -1.08400
C312        C  0.24049335  0.72518873  0.82419975     1.07000
C313        C  0.21197441  0.69566185  0.70948971     1.07000
C314        C  0.20909831  0.76498136  0.75913361     1.09900
C315        C  0.24503461  0.64968206  0.77615882     1.07700
H316        H  0.23346832  0.73797836  0.72165536     0.33300
O317        O  0.24784823  0.73327974  0.73002615    -1.28600
H318        H  0.26987970  0.69110543  0.79846346     0.33000
O319        O  0.27405715  0.70031870  0.78445506    -1.30300
O320        O  0.30355023  0.71466268  0.67571258    -0.86100
O321        O  0.33625602  0.74712985  0.80375334    -0.87600
O322        O  0.25620376  0.77664806  0.70048808    -0.86200
O323        O  0.29628741  0.64948411  0.72657051    -0.86200
O324        O  0.31201709  0.66878431  0.80008830    -0.85900
O325        O  0.27159235  0.79554497  0.77501112    -0.85700
O326        O  0.33391631  0.77655956  0.72476443    -0.86100
O327        O  0.35789987  0.70414507  0.73687666    -0.85600
O328        O  0.29790600  0.79616609  0.72700199    -0.86600
O329        O  0.34092761  0.66947638  0.75048308    -0.85800
O330        O  0.25841052  0.74194457  0.67899581    -0.86200
O331        O  0.28914004  0.77651561  0.80683568    -0.85900
O332        O  0.30910782  0.70338315  0.82189367    -0.85600
O333        O  0.27893907  0.66826163  0.69431464    -0.86000
O334        O  0.33638012  0.73091616  0.69411304    -0.86300
O335        O  0.35557366  0.74846170  0.76777500    -0.87600
Zr336      Zr  0.27225450  0.71004715  0.70529540     2.83100
Zr337      Zr  0.29488256  0.73496525  0.79559178     2.83500
Zr338      Zr  0.26848322  0.76775610  0.74160205     2.84100
Zr339      Zr  0.29862574  0.67759428  0.75941537     2.83400
Zr340      Zr  0.32779274  0.73509738  0.73661889     2.84200
O341        O  0.31926577  0.71223170  0.77059219    -1.08200
O342        O  0.29253900  0.74485844  0.71643529    -1.07700
C343        C  0.32510016  0.72283764  0.67561148     1.07000
C344        C  0.35501470  0.75087709  0.79078213     1.09600
C345        C  0.25438775  0.76458021  0.68083332     1.07200
C346        C  0.28827737  0.64995827  0.70492932     1.07500
C347        C  0.31365761  0.68089035  0.81970704     1.07100
C348        C  0.28003540  0.79507126  0.79655323     1.06700
C349        C  0.32055038  0.79529227  0.72270954     1.07100
C350        C  0.35869228  0.68178532  0.74219928     1.06600
H351        H  0.31248050  0.77209406  0.76662829     0.33300
O352        O  0.30390981  0.75790300  0.76189148    -1.29300
H353        H  0.31766082  0.69085716  0.71477085     0.33300
O354        O  0.30767879  0.70013249  0.72534131    -1.30700
C355        C  0.76562344  0.45930698  0.38417594     0.80600
N356        N  0.75583987  0.45797746  0.40623866    -0.77700
C357        C  0.74709470  0.47786362  0.41683239     0.83100
N358        N  0.74755154  0.49904314  0.40506362    -0.77600
C359        C  0.75704270  0.50048071  0.38275815     0.83200
N360        N  0.76614679  0.48046760  0.37249294    -0.79300
C361        C  0.89799811  0.49514359  0.18946409     0.80600
N362        N  0.92212027  0.49461670  0.18736618    -0.77700
C363        C  0.93407099  0.47361021  0.18689276     0.83100
N364        N  0.92171903  0.45288400  0.18846486    -0.77600
C365        C  0.89745167  0.45283549  0.18984498     0.83200
N366        N  0.88576672  0.47418271  0.19047883    -0.79300
C367        C  0.54456785  0.60369851  0.28380518     0.80600
N368        N  0.54625384  0.58158078  0.29351503    -0.77700
C369        C  0.52627898  0.56915181  0.29916347     0.83100
N370        N  0.50448286  0.57893178  0.29500709    -0.77600
C371        C  0.50265452  0.60100843  0.28534971     0.83200
N372        N  0.52266785  0.61338948  0.27965426    -0.79300
C373        C  0.54309290  0.78021906  0.12311311     0.80600
N374        N  0.52137273  0.77930984  0.13413587    -0.77700
C375        C  0.50098244  0.78468892  0.12178451     0.83100
N376        N  0.50238158  0.79075562  0.09825356    -0.77600
C377        C  0.52383050  0.79172020  0.08688755     0.83200
N378        N  0.54387253  0.78641439  0.09962231    -0.79300
O379        O  0.78713798  0.79865416  0.22059457    -0.86100
O380        O  0.74766330  0.67256342  0.19358716    -0.86300
O381        O  0.79814270  0.73573754  0.16984740    -0.87900
O382        O  0.72272274  0.74779940  0.19130952    -0.86700
O383        O  0.70346948  0.74882272  0.22760204    -0.86300
O384        O  0.83114571  0.71952844  0.18826225    -0.87600
O385        O  0.75161645  0.70674421  0.17156707    -0.86100
O386        O  0.77126747  0.78026795  0.18745166    -0.85700
Zr387      Zr  0.76516704  0.73846987  0.19843400     2.84300
O388        O  0.74108777  0.71604509  0.22394423    -1.07700
O389        O  0.80032336  0.74830616  0.21909576    -1.08400
C390        C  0.77963472  0.79858174  0.19877076     1.07000
C391        C  0.74642272  0.68435364  0.17375571     1.07000
C392        C  0.82008787  0.72832027  0.16991121     1.09900
C393        C  0.70391113  0.75024845  0.20455958     1.07700
H394        H  0.79035195  0.69461823  0.19539825     0.33300
O395        O  0.78612868  0.70378726  0.20939881    -1.28600
H396        H  0.74644120  0.77483976  0.22830896     0.33000
O397        O  0.75522121  0.76064413  0.23276591    -1.30300
O398        O  0.76176312  0.65314650  0.26728450    -0.86100
O399        O  0.80274859  0.77979439  0.29359791    -0.87600
O400        O  0.82732441  0.67152099  0.22043845    -0.86200
O401        O  0.70214117  0.70646940  0.25711742    -0.86200
O402        O  0.72577284  0.77815232  0.27309431    -0.85900
O403        O  0.85090190  0.74542748  0.23192882    -0.85700
O404        O  0.82884270  0.69985537  0.29731094    -0.86100
O405        O  0.75586602  0.71314034  0.31800362    -0.85600
O406        O  0.84914761  0.70069851  0.26177335    -0.86600
O407        O  0.72277290  0.73020046  0.30098760    -0.85800
O408        O  0.79111357  0.65255909  0.22131460    -0.86200
O409        O  0.83248295  0.77927156  0.24598164    -0.85900
O410        O  0.76073045  0.79859153  0.26828916    -0.85600
O411        O  0.71854167  0.67396095  0.23885442    -0.86000
O412        O  0.78032272  0.67106699  0.29935872    -0.86300
O413        O  0.79888000  0.74539422  0.31564695    -0.87600
Zr414      Zr  0.76129177  0.68121236  0.23419371     2.83100
Zr415      Zr  0.79050178  0.77037138  0.25315318     2.83500
Zr416      Zr  0.82121580  0.71365985  0.23036316     2.84100
Zr417      Zr  0.73196489  0.73753359  0.25870139     2.83400
Zr418      Zr  0.78775250  0.71256692  0.28901013     2.84200
O419        O  0.76708681  0.74742658  0.27875306    -1.08200
O420        O  0.79675947  0.69042149  0.25479732    -1.07700
C421        C  0.76995141  0.65334279  0.28887628     1.07000
C422        C  0.80330413  0.76792554  0.31331367     1.09600
C423        C  0.81393545  0.65282841  0.21814684     1.07200
C424        C  0.70075921  0.68535608  0.24815581     1.07500
C425        C  0.73851075  0.79731525  0.27450125     1.07100
C426        C  0.85079983  0.76765631  0.23807620     1.06700
C427        C  0.84800470  0.69730331  0.28465704     1.07100
C428        C  0.73405411  0.72048853  0.31877091     1.06600
H429        H  0.82602643  0.74064229  0.27299276     0.33300
O430        O  0.81174286  0.73603660  0.26441157    -1.29300
H431        H  0.74221423  0.69296048  0.27889658     0.33300
O432        O  0.75235814  0.70262168  0.26885112    -1.30700
C433        C  0.65495285  0.67141602  0.51537128     0.80600
N434        N  0.63155088  0.66508780  0.51426707    -0.77700
C435        C  0.62098758  0.66030494  0.49286255     0.83100
N436        N  0.63405225  0.66254334  0.47257246    -0.77600
C437        C  0.65719818  0.66957026  0.47347684     0.83200
N438        N  0.66757386  0.67422780  0.49490947    -0.79300
C439        C  0.83237826  0.84766524  0.51356477     0.80600
N440        N  0.83614820  0.87153958  0.51541125    -0.77700
C441        C  0.83861783  0.88509663  0.49547132     0.83100
N442        N  0.83732171  0.87467229  0.47358761    -0.77600
C443        C  0.83301164  0.85088493  0.47136630     0.83200
N444        N  0.83050510  0.83756063  0.49154880    -0.79300
C445        C  0.55333033  0.59429678  0.69336491     0.80600
N446        N  0.53326008  0.60726381  0.69737904    -0.77700
C447        C  0.51141728  0.59687209  0.69643084     0.83100
N448        N  0.50988860  0.57336575  0.69100926    -0.77600
C449        C  0.52970948  0.56011391  0.68678885     0.83200
N450        N  0.55156154  0.57061178  0.68835708    -0.79300
C451        C  0.51333021  0.79414744  0.87047887     0.80600
N452        N  0.53411541  0.79089680  0.85825663    -0.77700
C453        C  0.55562438  0.79261824  0.86970428     0.83100
N454        N  0.55607877  0.79728631  0.89360223    -0.77600
C455        C  0.53540738  0.80075230  0.90590107     0.83200
N456        N  0.51413157  0.79886446  0.89431107    -0.79300
C457        C  0.72557353  0.44653589  0.62788498     0.80600
N458        N  0.73182526  0.46793231  0.63747185    -0.77700
C459        C  0.73113974  0.48807796  0.62396774     0.83100
N460        N  0.72474593  0.48656692  0.60059756    -0.77600
C461        C  0.71848421  0.46530642  0.59073790     0.83200
N462        N  0.71896479  0.44531778  0.60453559    -0.79300
C463        C  0.90158659  0.48557871  0.79045977     0.80600
N464        N  0.88971341  0.46441272  0.79185540    -0.77700
C465        C  0.90199994  0.44400537  0.79686366     0.83100
N466        N  0.92594868  0.44492555  0.80040047    -0.77600
C467        C  0.93812639  0.46573667  0.79848994     0.83200
N468        N  0.92571632  0.48608523  0.79362046    -0.79300
O469        O  0.80533129  0.73317149  0.81530863    -0.86100
O470        O  0.83231123  0.69538993  0.68771653    -0.86300
O471        O  0.83422910  0.66658286  0.76774474    -0.87900
O472        O  0.85662573  0.73949020  0.75258224    -0.86700
O473        O  0.83883717  0.77197734  0.73526579    -0.86300
O474        O  0.79875272  0.64662107  0.76411279    -0.87600
O475        O  0.85360304  0.69612085  0.72299529    -0.86100
O476        O  0.83787447  0.71601680  0.79750955    -0.85700
Zr477      Zr  0.82693329  0.70796992  0.75548677     2.84300
O478        O  0.81631624  0.72922897  0.72080752    -1.07700
O479        O  0.79247720  0.69803496  0.77692766    -1.08400
C480        C  0.82723695  0.72598794  0.81552618     1.07000
C481        C  0.85180492  0.69338879  0.70010223     1.07000
C482        C  0.82142806  0.64737915  0.76866206     1.09900
C483        C  0.85707500  0.76093196  0.74414220     1.07700
H484        H  0.81049151  0.67066083  0.72590473     0.33300
O485        O  0.80203556  0.68486437  0.73086582    -1.28600
H486        H  0.81689078  0.75270550  0.77552574     0.33000
O487        O  0.80649619  0.74283686  0.76591346    -1.30300
O488        O  0.75707020  0.71023636  0.66904033    -0.86100
O489        O  0.73119914  0.74669813  0.79672050    -0.87600
O490        O  0.76952711  0.64633990  0.71980185    -0.86200
O491        O  0.80752459  0.77217804  0.68969588    -0.86200
O492        O  0.79567486  0.79254928  0.76429759    -0.85900
O493        O  0.75727183  0.66583696  0.79383999    -0.85700
O494        O  0.70727222  0.70011925  0.73078391    -0.86100
O495        O  0.73010523  0.77425721  0.72018247    -0.85600
O496        O  0.72536336  0.66623809  0.74525356    -0.86600
O497        O  0.76631917  0.79314460  0.71952354    -0.85800
O498        O  0.78317685  0.66501604  0.68591834    -0.86200
O499        O  0.76160954  0.70062000  0.81517652    -0.85900
O500        O  0.77906030  0.77450189  0.79727805    -0.85600
O501        O  0.80362581  0.73724555  0.66880866    -0.86000
O502        O  0.72494670  0.72713182  0.68811020    -0.86300
O503        O  0.70962246  0.74582948  0.76183999    -0.87600
Zr504      Zr  0.79082840  0.70650310  0.69670156     2.83100
Zr505      Zr  0.77198124  0.73293973  0.78756887     2.83500
Zr506      Zr  0.76760147  0.67499234  0.75245739     2.84100
Zr507      Zr  0.79629969  0.76415327  0.73136554     2.83400
Zr508      Zr  0.73641207  0.73205878  0.72998796     2.84200
O509        O  0.76193386  0.75500480  0.75349185    -1.08200
O510        O  0.75658922  0.69706054  0.71863876    -1.07700
C511        C  0.73538457  0.71832581  0.66949219     1.07000
C512        C  0.71161892  0.74966886  0.78459701     1.09600
C513        C  0.77540814  0.64665618  0.69749257     1.07200
C514        C  0.80834141  0.75975192  0.67018416     1.07500
C515        C  0.78831181  0.79237524  0.78614937     1.07100
C516        C  0.75725230  0.67800815  0.81345716     1.06700
C517        C  0.70721956  0.67788789  0.73678395     1.07100
C518        C  0.74336881  0.79296770  0.71738961     1.06600
H519        H  0.73270620  0.70513826  0.77290801     0.33300
O520        O  0.74677529  0.70956377  0.76393972    -1.29300
H521        H  0.76581623  0.75058238  0.69376240     0.33300
O522        O  0.77053647  0.74148839  0.70769584    -1.30700
C523        C  0.50518108  0.35935900  0.29181217     0.80600
N524        N  0.50283411  0.38141024  0.30137572    -0.77700
C525        C  0.52229948  0.39416887  0.30807514     0.83100
N526        N  0.54439719  0.38428805  0.30559138    -0.77600
C527        C  0.54688076  0.36190051  0.29653877     0.83200
N528        N  0.52721231  0.34964825  0.28936395    -0.79300
C529        C  0.54476049  0.16794469  0.12899693     0.80600
N530        N  0.54505316  0.16543393  0.10490314    -0.77700
C531        C  0.52431398  0.16509200  0.09229287     0.83100
N532        N  0.50317222  0.16769685  0.10393407    -0.77600
C533        C  0.50244599  0.16989883  0.12817372     0.83200
N534        N  0.52349385  0.16984976  0.14041404    -0.79300
O535        O  0.79001315  0.21745488  0.18158638    -0.86100
O536        O  0.82847381  0.25029453  0.30691283    -0.86300
O537        O  0.82706578  0.27647659  0.22789034    -0.87900
O538        O  0.84439753  0.20241460  0.24176088    -0.86700
O539        O  0.82481061  0.16950924  0.25645555    -0.86300
O540        O  0.79282495  0.29896809  0.23093592    -0.87600
O541        O  0.84672765  0.24936767  0.27038055    -0.86100
O542        O  0.82427549  0.23154655  0.19894258    -0.85700
Zr543      Zr  0.81712203  0.23647855  0.24131422     2.84300
O544        O  0.80757234  0.21531777  0.27601456    -1.07700
O545        O  0.78244306  0.24957313  0.22181926    -1.08400
C546        C  0.81220902  0.22374722  0.18091399     1.07000
C547        C  0.84699878  0.25258481  0.29320850     1.07000
C548        C  0.81518744  0.29610041  0.22579383     1.09900
C549        C  0.84331549  0.18019978  0.24784256     1.07700
H550        H  0.80564207  0.27500573  0.27098526     0.33300
O551        O  0.79581761  0.26147553  0.26693986    -1.28600
H552        H  0.80283302  0.19339465  0.22041296     0.33000
O553        O  0.79381820  0.20351582  0.23115922    -1.30300
O554        O  0.75338587  0.24107913  0.33099055    -0.86100
O555        O  0.71716576  0.20573178  0.20527575    -0.87600
O556        O  0.76737065  0.30205905  0.28022028    -0.86200
O557        O  0.80144455  0.17367499  0.30542718    -0.86200
O558        O  0.77934166  0.15521343  0.23194382    -0.85900
O559        O  0.74556877  0.28410708  0.20801043    -0.85700
O560        O  0.70054003  0.25351838  0.27187661    -0.86100
O561        O  0.71785982  0.17900732  0.28438910    -0.85600
O562        O  0.72039521  0.28657404  0.25779839    -0.86600
O563        O  0.75223749  0.15668838  0.28117767    -0.85800
O564        O  0.78466795  0.28244382  0.31177390    -0.86200
O565        O  0.74650594  0.24955688  0.18624659    -0.85900
O566        O  0.76252543  0.17516622  0.20028243    -0.85600
O567        O  0.80086347  0.20830836  0.32722018    -0.86000
O568        O  0.71927622  0.22611731  0.31402103    -0.86300
O569        O  0.69874390  0.20614478  0.24174290    -0.87600
Zr570      Zr  0.78593340  0.24023869  0.30157006     2.83100
Zr571      Zr  0.75890437  0.21661562  0.21194777     2.83500
Zr572      Zr  0.76084498  0.27414939  0.24761893     2.84100
Zr573      Zr  0.78419582  0.18221230  0.26588201     2.83400
Zr574      Zr  0.72761289  0.21952601  0.27187985     2.84200
O575        O  0.74924300  0.19476757  0.24630814    -1.08200
O576        O  0.75097249  0.25269561  0.28210706    -1.07700
C577        C  0.73108900  0.23484167  0.33184682     1.07000
C578        C  0.69872167  0.20287986  0.21884081     1.09600
C579        C  0.77697601  0.30149272  0.30123288     1.07200
C580        C  0.80549018  0.18583301  0.32472178     1.07500
C581        C  0.77120661  0.15631026  0.21028006     1.07100
C582        C  0.74272449  0.27221100  0.18843909     1.06700
C583        C  0.70191444  0.27583820  0.26638455     1.07100
C584        C  0.72980434  0.15934036  0.28606931     1.06600
H585        H  0.72254017  0.24671098  0.22945516     0.33300
O586        O  0.73699236  0.24130863  0.23738462    -1.29300
H587        H  0.75835196  0.19831511  0.30589880     0.33300
O588        O  0.76246128  0.20688732  0.29173359    -1.30700
C589        C  0.51131338  0.35100502  0.71681240     0.80600
N590        N  0.53176390  0.33822166  0.72001174    -0.77700
C591        C  0.55332675  0.34778060  0.71445865     0.83100
N592        N  0.55460112  0.37030223  0.70572725    -0.77600
C593        C  0.53430415  0.38306060  0.70209335     0.83200
N594        N  0.51283919  0.37349672  0.70793154    -0.79300
C595        C  0.50931750  0.15451918  0.87626384     0.80600
N596        N  0.51052581  0.15325782  0.90046671    -0.77700
C597        C  0.53191259  0.15263227  0.91195449     0.83100
N598        N  0.55233204  0.15341468  0.89892923    -0.77600
C599        C  0.55159615  0.15447144  0.87463750     0.83200
N600        N  0.52994455  0.15505770  0.86341501    -0.79300
C601        C  0.64682835  0.26974028  0.53006831     0.80600
N602        N  0.62435801  0.27872482  0.53086223    -0.77700
C603        C  0.61256226  0.28408212  0.51035146     0.83100
N604        N  0.62307455  0.27975023  0.48885378    -0.77600
C605        C  0.64563723  0.27062693  0.48803312     0.83200
N606        N  0.65738905  0.26561090  0.50869874    -0.79300
C607        C  0.84827107  0.10340115  0.47997268     0.80600
N608        N  0.84519589  0.11380828  0.50168498    -0.77700
C609        C  0.84463470  0.10036085  0.52183870     0.83100
N610        N  0.84700271  0.07632867  0.52023157    -0.77600
C611        C  0.85054904  0.06557123  0.49876393     0.83200
N612        N  0.85106640  0.07928120  0.47863284    -0.79300
O613        O  0.80390711  0.20391093  0.82597536    -0.86100
O614        O  0.82974857  0.24575539  0.69965844    -0.86300
O615        O  0.85347472  0.19271501  0.76089547    -0.87900
O616        O  0.83516202  0.26406045  0.78239784    -0.86700
O617        O  0.80137924  0.28697049  0.78059591    -0.86300
O618        O  0.83347717  0.16044443  0.74553946    -0.87600
O619        O  0.85149146  0.24215042  0.73440827    -0.86100
O620        O  0.83736457  0.21687383  0.80602136    -0.85700
Zr621      Zr  0.82547647  0.22560984  0.76527215     2.84300
O622        O  0.80166403  0.25214963  0.74324630    -1.07700
O623        O  0.80395715  0.19138347  0.77567578    -1.08400
C624        C  0.82621293  0.20969134  0.82479897     1.07000
C625        C  0.84924174  0.24750054  0.71202449     1.07000
C626        C  0.85251093  0.17095202  0.75340152     1.09900
C627        C  0.82377137  0.28377249  0.78565607     1.07700
H628        H  0.82724996  0.20203776  0.72095835     0.33300
O629        O  0.81339952  0.20644054  0.73026185    -1.28600
H630        H  0.79755556  0.24434639  0.80275275     0.33000
O631        O  0.79233410  0.23647380  0.78828859    -1.30300
O632        O  0.75534392  0.23073054  0.68051537    -0.86100
O633        O  0.72932288  0.19221026  0.80805132    -0.87600
O634        O  0.80247675  0.16608600  0.69858030    -0.86200
O635        O  0.76770727  0.29210255  0.73435198    -0.86200
O636        O  0.75716466  0.26849510  0.80817606    -0.85900
O637        O  0.78847852  0.14183636  0.77161402    -0.85700
O638        O  0.72509206  0.16888835  0.72481387    -0.86100
O639        O  0.70658873  0.24180118  0.74565590    -0.85600
O640        O  0.75956740  0.14694571  0.72592316    -0.86600
O641        O  0.72607502  0.27340718  0.76286953    -0.85800
O642        O  0.80263647  0.20252122  0.68019080    -0.86200
O643        O  0.77440808  0.16001769  0.80554301    -0.85900
O644        O  0.75676847  0.23227989  0.82688924    -0.85600
O645        O  0.78098426  0.27476849  0.69972087    -0.86000
O646        O  0.72192932  0.21760527  0.70043829    -0.86300
O647        O  0.70775568  0.19463289  0.77309957    -0.87600
Zr648      Zr  0.78900815  0.23261783  0.70840862     2.83100
Zr649      Zr  0.77037124  0.20250179  0.79812796     2.83500
Zr650      Zr  0.79166647  0.17225636  0.74052173     2.84100
Zr651      Zr  0.76815897  0.26233937  0.76624527     2.83400
Zr652      Zr  0.73405941  0.20847324  0.74109801     2.84200
O653        O  0.74617472  0.22819121  0.77592160    -1.08200
O654        O  0.76744970  0.19812314  0.71819771    -1.07700
C655        C  0.73290491  0.22541328  0.68178391     1.07000
C656        C  0.70983638  0.19055803  0.79577512     1.09600
C657        C  0.80561472  0.17967034  0.68013693     1.07200
C658        C  0.77264512  0.29264641  0.71177225     1.07500
C659        C  0.75386667  0.25515524  0.82677705     1.07100
C660        C  0.78148116  0.14160554  0.79362906     1.06700
C661        C  0.73705780  0.14940895  0.72139942     1.07100
C662        C  0.70723837  0.26320929  0.75419328     1.06600
H663        H  0.74887856  0.16865102  0.76744955     0.33300
O664        O  0.75805405  0.18265269  0.76335346    -1.29300
H665        H  0.74544717  0.25325713  0.72222841     0.33300
O666        O  0.75569173  0.24279934  0.73137549    -1.30700
O667        O  0.25327240  0.21797095  0.18328461    -0.86100
O668        O  0.22678314  0.25984437  0.30907444    -0.86300
O669        O  0.20284464  0.20927852  0.24945319    -0.87900
O670        O  0.22386404  0.28282138  0.23258370    -0.86700
O671        O  0.25940291  0.30294762  0.23096409    -0.86300
O672        O  0.22201582  0.17707861  0.26605570    -0.87600
O673        O  0.20528095  0.25721049  0.27412532    -0.86100
O674        O  0.22027848  0.23307573  0.20252215    -0.85700
Zr675      Zr  0.23182921  0.24132217  0.24374413     2.84300
O676        O  0.25685153  0.26619942  0.26599487    -1.07700
O677        O  0.25238654  0.20623591  0.23390986    -1.08400
C678        C  0.23119672  0.22450238  0.18411086     1.07000
C679        C  0.20729562  0.26202433  0.29659262     1.07000
C680        C  0.20312792  0.18789330  0.25817652     1.09900
C681        C  0.23641032  0.30192503  0.22930469     1.07700
H682        H  0.22970993  0.21727365  0.28796950     0.33300
O683        O  0.24360246  0.22129406  0.27856895    -1.28600
H684        H  0.26030987  0.25948788  0.20676784     0.33000
O685        O  0.26542966  0.25117421  0.22104527    -1.30300
O686        O  0.30210681  0.24574321  0.32879768    -0.86100
O687        O  0.32735777  0.20518634  0.20258568    -0.87600
O688        O  0.25445058  0.18015692  0.31055698    -0.86200
O689        O  0.28982137  0.30557043  0.27517897    -0.86200
O690        O  0.30235083  0.28163740  0.20203078    -0.85900
O691        O  0.26359322  0.15683078  0.23658728    -0.85700
O692        O  0.33147394  0.18151097  0.28415614    -0.86100
O693        O  0.35158871  0.25228853  0.26230857    -0.85600
O694        O  0.29710341  0.15968567  0.28159904    -0.86600
O695        O  0.33355586  0.28474775  0.24584929    -0.85800
O696        O  0.25422205  0.21654124  0.32908643    -0.86200
O697        O  0.27884989  0.17396170  0.20273957    -0.85900
O698        O  0.29802755  0.24597390  0.18257906    -0.85600
O699        O  0.27397564  0.28854645  0.30897615    -0.86000
O700        O  0.33527534  0.23139875  0.30925635    -0.86300
O701        O  0.34909058  0.20766094  0.23746684    -0.87600
Zr702      Zr  0.26807121  0.24647091  0.30103347     2.83100
Zr703      Zr  0.28614055  0.21603078  0.21150932     2.83500
Zr704      Zr  0.26457312  0.18636446  0.26873821     2.84100
Zr705      Zr  0.29083114  0.27567890  0.24357341     2.83400
Zr706      Zr  0.32251843  0.22118910  0.26895702     2.84200
O707        O  0.31118325  0.24072177  0.23385400    -1.08200
O708        O  0.28898600  0.21139499  0.29171099    -1.07700
C709        C  0.32453956  0.24012257  0.32766910     1.07000
C710        C  0.34691072  0.20379960  0.21483973     1.09600
C711        C  0.25129875  0.19371232  0.32896725     1.07200
C712        C  0.28247804  0.30628784  0.29704941     1.07500
C713        C  0.30301707  0.26843432  0.18310947     1.07100
C714        C  0.26989170  0.15615436  0.21435895     1.06700
C715        C  0.31974583  0.16180836  0.28613090     1.07100
C716        C  0.35228115  0.27339972  0.25330884     1.06600
H717        H  0.30704277  0.18161559  0.24168529     0.33300
O718        O  0.29834260  0.19585466  0.24609708    -1.29300
H719        H  0.31257370  0.26665262  0.28786694     0.33300
O720        O  0.30217367  0.25626328  0.27880383    -1.30700
C721        C  0.81108302  0.16667571  0.61297939    -0.05100
C722        C  0.82378678  0.14501031  0.61306271     0.09100
C723        C  0.83152796  0.13506355  0.63488275    -0.02400
C724        C  0.82634590  0.14663029  0.65671838    -0.00700
C725        C  0.81283578  0.16818244  0.65693377    -0.04300
C726        C  0.80600886  0.17849812  0.63462042     0.02700
C727        C  0.82950849  0.13304595  0.58988446     0.09500
C728        C  0.84488541  0.11283435  0.63475654     0.35400
C729        C  0.79392523  0.20141730  0.63338219     0.38900
C730        C  0.84957979  0.14039293  0.57656412    -0.04700
C731        C  0.85444202  0.12988798  0.55418521     0.02500
C732        C  0.83950256  0.11162446  0.54524894    -0.04300
C733        C  0.81925408  0.10446260  0.55851621    -0.00500
C734        C  0.81415639  0.11533723  0.58066082    -0.03100
C735        C  0.86496829  0.15908684  0.58579271     0.36200
C736        C  0.80300984  0.08670904  0.54886187     0.39800
C737        C  0.87488643  0.13781531  0.54042358     0.38900
C738        C  0.79264823  0.10898798  0.59360817     0.35800
C739        C  0.80293451  0.17666223  0.59040356     0.36500
C740        C  0.83609603  0.13676999  0.67870215     0.39800
N741        N  0.89110558  0.14423885  0.52936582    -0.38300
N742        N  0.87713990  0.17406878  0.59318990    -0.39900
N743        N  0.79005063  0.07259893  0.54108175    -0.37600
N744        N  0.77539276  0.10412733  0.60387207    -0.40000
N745        N  0.85547193  0.09507077  0.63457775    -0.39800
N746        N  0.84401344  0.12882904  0.69612991    -0.37400
N747        N  0.78460430  0.21983726  0.63212287    -0.38500
N748        N  0.79637458  0.18451699  0.57239666    -0.40100
C749        C  0.69043009  0.25519438  0.63827482    -0.05100
C750        C  0.69361041  0.24095213  0.61774065     0.09100
C751        C  0.70823914  0.22041555  0.61884237    -0.02400
C752        C  0.72007274  0.21447624  0.64031937    -0.00700
C753        C  0.71829099  0.22974613  0.66026202    -0.04300
C754        C  0.70317116  0.24992239  0.65934692     0.02700
C755        C  0.68185134  0.24800584  0.59483863     0.09500
C756        C  0.71136575  0.20566655  0.59777433     0.35400
C757        C  0.70158059  0.26588877  0.67969443     0.38900
C758        C  0.69067826  0.26763870  0.58172102    -0.04700
C759        C  0.67883496  0.27519283  0.56079169     0.02500
C760        C  0.65887399  0.26239572  0.55231721    -0.04300
C761        C  0.65051381  0.24230419  0.56498378    -0.00500
C762        C  0.66160395  0.23549790  0.58655333    -0.03100
C763        C  0.71218105  0.27976468  0.58960208     0.36200
C764        C  0.63098206  0.22817827  0.55544301     0.39800
C765        C  0.68677213  0.29643863  0.54829723     0.38900
C766        C  0.65209585  0.21577371  0.60035625     0.35800
C767        C  0.67414794  0.27537018  0.63752858     0.36500
C768        C  0.73350210  0.19238186  0.64215443     0.39800
N769        N  0.69292206  0.31350046  0.53841536    -0.38300
N770        N  0.72950246  0.28920104  0.59580864    -0.39900
N771        N  0.61559783  0.21668053  0.54777909    -0.37600
N772        N  0.64451185  0.20007379  0.61142072    -0.40000
N773        N  0.71380285  0.19395393  0.58091208    -0.39800
N774        N  0.74391274  0.17457772  0.64372063    -0.37400
N775        N  0.70052130  0.27886402  0.69574077    -0.38500
N776        N  0.66106064  0.29136720  0.63668636    -0.40100
C777        C  0.59847632  0.17443418  0.82892568    -0.05100
C778        C  0.61923306  0.16305066  0.83778002     0.09100
C779        C  0.61732852  0.14714935  0.85722070    -0.02400
C780        C  0.59506601  0.14346096  0.86845240    -0.00700
C781        C  0.57444672  0.15619159  0.86077854    -0.04300
C782        C  0.57630202  0.17147117  0.84060641     0.02700
C783        C  0.64335532  0.16952183  0.82801184     0.09500
C784        C  0.63849406  0.13495522  0.86605505     0.35400
C785        C  0.55591616  0.18544048  0.83261202     0.38900
C786        C  0.65326607  0.19213629  0.83330918    -0.04700
C787        C  0.67526809  0.19904285  0.82314615     0.02500
C788        C  0.68799652  0.18292090  0.80852761    -0.04300
C789        C  0.67931628  0.15955217  0.80526756    -0.00500
C790        C  0.65662586  0.15313722  0.81412118    -0.03100
C791        C  0.64089790  0.20811431  0.84954470     0.36200
C792        C  0.69443221  0.14183330  0.79390164     0.39800
C793        C  0.68467231  0.22275097  0.82762487     0.38900
C794        C  0.64693412  0.12976749  0.80876100     0.35800
C795        C  0.60010935  0.18960084  0.80794065     0.36500
C796        C  0.59359280  0.12643745  0.88795590     0.39800
N797        N  0.69199926  0.24170649  0.83132565    -0.38300
N798        N  0.63096744  0.22062543  0.86266151    -0.39900
N799        N  0.70691278  0.12777822  0.78529720    -0.37600
N800        N  0.63933049  0.11106406  0.80441092    -0.40000
N801        N  0.65538313  0.12513953  0.87294722    -0.39800
N802        N  0.59251284  0.11291680  0.90356524    -0.37400
N803        N  0.53973027  0.19670584  0.82626278    -0.38500
N804        N  0.60142961  0.20162265  0.79116342    -0.40100
C805        C  0.60960411  0.31005674  0.71205578    -0.05100
C806        C  0.61836611  0.31298311  0.73556444     0.09100
C807        C  0.60538050  0.32662046  0.75223530    -0.02400
C808        C  0.58402888  0.33795662  0.74520402    -0.00700
C809        C  0.57544136  0.33535971  0.72158654    -0.04300
C810        C  0.58813688  0.32127189  0.70503642     0.02700
C811        C  0.64105468  0.30107657  0.74289263     0.09500
C812        C  0.61377012  0.32850442  0.77672876     0.35400
C813        C  0.57900841  0.31812330  0.68094660     0.38900
C814        C  0.66281061  0.31366547  0.74216728    -0.04700
C815        C  0.68451106  0.30180446  0.74720741     0.02500
C816        C  0.68448014  0.27712174  0.75305216    -0.04300
C817        C  0.66225347  0.26517339  0.75549707    -0.00500
C818        C  0.64074728  0.27700076  0.74995055    -0.03100
C819        C  0.66284043  0.33869732  0.73544930     0.36200
C820        C  0.66118837  0.24071819  0.76397040     0.39800
C821        C  0.70669411  0.31503348  0.74532422     0.38900
C822        C  0.61821873  0.26419819  0.75078944     0.35800
C823        C  0.62249921  0.29500975  0.69539068     0.36500
C824        C  0.57087921  0.35236447  0.76225613     0.39800
N825        N  0.72418648  0.32593310  0.74394262    -0.38300
N826        N  0.66280922  0.35865946  0.73012429    -0.39900
N827        N  0.65994341  0.22121867  0.77065161    -0.37600
N828        N  0.60026349  0.25397764  0.75123690    -0.40000
N829        N  0.62040208  0.32984266  0.79630548    -0.39800
N830        N  0.56034672  0.36385194  0.77582633    -0.37400
N831        N  0.57177122  0.31548653  0.66171699    -0.38500
N832        N  0.63284598  0.28269499  0.68242864    -0.40100
C833        C  0.71868774  0.24188632  0.39895127    -0.05100
C834        C  0.69409503  0.24742909  0.39909857     0.09100
C835        C  0.68121976  0.24757771  0.37738898    -0.02400
C836        C  0.69301006  0.24329360  0.35548898    -0.00700
C837        C  0.71798493  0.23817826  0.35509424    -0.04300
C838        C  0.73044401  0.23669449  0.37724288     0.02700
C839        C  0.68165461  0.25336660  0.42210425     0.09500
C840        C  0.65565912  0.25222689  0.37765680     0.35400
C841        C  0.75520975  0.22892681  0.37805686     0.38900
C842        C  0.67514135  0.27722151  0.42716209    -0.04700
C843        C  0.66259445  0.28278796  0.44831614     0.02500
C844        C  0.65706560  0.26463669  0.46488363    -0.04300
C845        C  0.66388925  0.24081682  0.46001580    -0.00500
C846        C  0.67609670  0.23519999  0.43869192    -0.03100
C847        C  0.68217124  0.29614529  0.41095078     0.36200
C848        C  0.65802026  0.22198621  0.47683374     0.39800
C849        C  0.65614108  0.30732932  0.45347437     0.38900
C850        C  0.68330860  0.21076861  0.43399788     0.35800
C851        C  0.73201322  0.24176223  0.42125325     0.36500
C852        C  0.67909435  0.24466922  0.33356524     0.39800
N853        N  0.65095945  0.32688672  0.45766851    -0.38300
N854        N  0.68798101  0.31120254  0.39805684    -0.39900
N855        N  0.65331932  0.20703466  0.49030122    -0.37600
N856        N  0.68931848  0.19132495  0.43041087    -0.40000
N857        N  0.63529644  0.25592491  0.37791951    -0.39800
N858        N  0.66761315  0.24573281  0.31633511    -0.37400
N859        N  0.77492825  0.22265295  0.37872874    -0.38500
N860        N  0.74264183  0.24164026  0.43904163    -0.40100
C861        C  0.81688953  0.13918443  0.37370089    -0.05100
C862        C  0.83106962  0.15232181  0.38988526     0.09100
C863        C  0.83922775  0.17516010  0.38341941    -0.02400
C864        C  0.83224346  0.18533038  0.36137260    -0.00700
C865        C  0.81598630  0.17323415  0.34602138    -0.04300
C866        C  0.80919233  0.14956026  0.35195479     0.02700
C867        C  0.83706334  0.14197047  0.41387916     0.09500
C868        C  0.85488953  0.18818851  0.39949792     0.35400
C869        C  0.79418092  0.13569009  0.33600067     0.38900
C870        C  0.85791344  0.12812959  0.41703155    -0.04700
C871        C  0.86198557  0.11593435  0.43880258     0.02500
C872        C  0.84537005  0.11785893  0.45773893    -0.04300
C873        C  0.82517411  0.13295891  0.45494484    -0.00500
C874        C  0.82101860  0.14482073  0.43306203    -0.03100
C875        C  0.87502048  0.12636305  0.39768480     0.36200
C876        C  0.80797092  0.13556342  0.47416039     0.39800
C877        C  0.88346291  0.10171065  0.44178522     0.38900
C878        C  0.79987650  0.15958797  0.43004389     0.35800
C879        C  0.81029691  0.11484079  0.37956051     0.36500
C880        C  0.84298044  0.20769799  0.35409951     0.39800
N881        N  0.90064719  0.09040304  0.44410906    -0.38300
N882        N  0.88861966  0.12519358  0.38217557    -0.39900
N883        N  0.79434099  0.13770006  0.48954711    -0.37600
N884        N  0.78299985  0.17134150  0.42766936    -0.40000
N885        N  0.86740768  0.19863020  0.41225249    -0.39800
N886        N  0.85207745  0.22535902  0.34854100    -0.37400
N887        N  0.78247391  0.12431664  0.32327761    -0.38500
N888        N  0.80532580  0.09536941  0.38430485    -0.40100
C889        C  0.51521349  0.13927141  0.97661387    -0.05100
C890        C  0.53033538  0.15501739  0.98915078     0.09100
C891        C  0.54742414  0.16854501  0.97660441    -0.02400
C892        C  0.54852176  0.16737215  0.95142040    -0.00700
C893        C  0.53266682  0.15228531  0.93861856    -0.04300
C894        C  0.51657095  0.13764107  0.95149753     0.02700
C895        C  0.52828533  0.15734989  0.01568957     0.09500
C896        C  0.56384674  0.18373342  0.98973996     0.35400
C897        C  0.50189282  0.12026222  0.93904482     0.38900
C898        C  0.54009101  0.14096282  0.03078393    -0.04700
C899        C  0.53806581  0.14305062  0.05580211     0.02500
C900        C  0.52500598  0.16215749  0.06592497    -0.04300
C901        C  0.51345407  0.17878538  0.05075029    -0.00500
C902        C  0.51466927  0.17605328  0.02569765    -0.03100
C903        C  0.55457199  0.12210861  0.02049981     0.36200
C904        C  0.50139743  0.19939578  0.06080593     0.39800
C905        C  0.54898789  0.12516348  0.07112076     0.38900
C906        C  0.50196147  0.19248867  0.01012920     0.35800
C907        C  0.49815968  0.12481054  0.98965557     0.36500
C908        C  0.56550105  0.18233564  0.93885102     0.39800
N909        N  0.55758139  0.11089166  0.08341319    -0.38300
N910        N  0.56623029  0.10715580  0.01227596    -0.39900
N911        N  0.49199787  0.21597378  0.06880799    -0.37600
N912        N  0.49173624  0.20548349  0.99765756    -0.40000
N913        N  0.57697779  0.19573589  0.00030134    -0.39800
N914        N  0.57913790  0.19423164  0.92889957    -0.37400
N915        N  0.49029207  0.10631297  0.92911637    -0.38500
N916        N  0.48459316  0.11328498  0.00011620    -0.40100
C917        C  0.39825650  0.16906606  0.18767885    -0.05100
C918        C  0.41176462  0.18767684  0.17734532     0.09100
C919        C  0.40374469  0.21151775  0.17920971    -0.02400
C920        C  0.38230406  0.21670617  0.19127023    -0.00700
C921        C  0.36895748  0.19810226  0.20172604    -0.04300
C922        C  0.37700866  0.17432508  0.20011335     0.02700
C923        C  0.43485015  0.18231849  0.16502643     0.09500
C924        C  0.41772304  0.23071830  0.16891075     0.35400
C925        C  0.36354522  0.15538813  0.21153176     0.38900
C926        C  0.43487677  0.17299661  0.14168256    -0.04700
C927        C  0.45667206  0.16838299  0.12982539     0.02500
C928        C  0.47900626  0.17358430  0.14113844    -0.04300
C929        C  0.47855572  0.18293523  0.16493292    -0.00500
C930        C  0.45664139  0.18709999  0.17664769    -0.03100
C931        C  0.41223176  0.16850381  0.12972252     0.36200
C932        C  0.50033563  0.18903811  0.17773453     0.39800
C933        C  0.45552762  0.15804974  0.10604929     0.38900
C934        C  0.45641769  0.19680304  0.20075474     0.35800
C935        C  0.40629178  0.14454562  0.18557319     0.36500
C936        C  0.37403673  0.24122192  0.19307519     0.39800
N937        N  0.45430846  0.14991261  0.08705686    -0.38300
N938        N  0.39412685  0.16497271  0.12029869    -0.39900
N939        N  0.51756247  0.19390610  0.18816935    -0.37600
N940        N  0.45618969  0.20469773  0.21987628    -0.40000
N941        N  0.42898789  0.24603464  0.16086109    -0.39800
N942        N  0.36741574  0.26075929  0.19437450    -0.37400
N943        N  0.35279723  0.14038702  0.22079670    -0.38500
N944        N  0.41260097  0.12495473  0.18372609    -0.40100
C945        C  0.60538088  0.19247012  0.14786915    -0.05100
C946        C  0.60961909  0.17987780  0.16933102     0.09100
C947        C  0.59273719  0.16302747  0.17737830    -0.02400
C948        C  0.57193977  0.15840454  0.16377553    -0.00700
C949        C  0.56745614  0.17130418  0.14247926    -0.04300
C950        C  0.58425076  0.18847647  0.13466976     0.02700
C951        C  0.63211664  0.18430383  0.18324149     0.09500
C952        C  0.59674432  0.15063742  0.19980575     0.35400
C953        C  0.57938602  0.20283087  0.11357463     0.38900
C954        C  0.63195291  0.19961704  0.20320168    -0.04700
C955        C  0.65345769  0.20504438  0.21532436     0.02500
C956        C  0.67561896  0.19569006  0.20712218    -0.04300
C957        C  0.67543992  0.17961104  0.18744441    -0.00500
C958        C  0.65371276  0.17361998  0.17599095    -0.03100
C959        C  0.60949822  0.20973265  0.21132895     0.36200
C960        C  0.69739433  0.16858070  0.17915259     0.39800
C961        C  0.65245919  0.22056361  0.23605962     0.38900
C962        C  0.65331765  0.15589994  0.15706102     0.35800
C963        C  0.62265905  0.20986277  0.13954555     0.36500
C964        C  0.55562230  0.13977378  0.17127926     0.39800
N965        N  0.65139570  0.23264087  0.25280837    -0.38300
N966        N  0.59157325  0.21765865  0.21791960    -0.39900
N967        N  0.71477100  0.15970264  0.17230373    -0.37600
N968        N  0.65273249  0.14155417  0.14218424    -0.40000
N969        N  0.59991325  0.14100763  0.21785189    -0.39800
N970        N  0.54273602  0.12475640  0.17717709    -0.37400
N971        N  0.57535560  0.21424913  0.09678130    -0.38500
N972        N  0.63642379  0.22369975  0.13280691    -0.40100
C973        C  0.46085736  0.32728064  0.25153663    -0.05100
C974        C  0.44181407  0.32349130  0.26753275     0.09100
C975        C  0.44377534  0.33105510  0.29151557    -0.02400
C976        C  0.46474491  0.34233318  0.29954808    -0.00700
C977        C  0.48373193  0.34642862  0.28352171    -0.04300
C978        C  0.48176590  0.33889494  0.25946359     0.02700
C979        C  0.42021186  0.30995650  0.25985163     0.09500
C980        C  0.42428208  0.32683378  0.30802474     0.35400
C981        C  0.50098500  0.34354221  0.24273771     0.38900
C982        C  0.41858150  0.28556572  0.26526089    -0.04700
C983        C  0.39735232  0.27302430  0.26048910     0.02500
C984        C  0.37643747  0.28541967  0.25246379    -0.04300
C985        C  0.37903403  0.30967181  0.24512613    -0.00500
C986        C  0.40099680  0.32164336  0.24853786    -0.03100
C987        C  0.43865311  0.27352967  0.27664765     0.36200
C988        C  0.35937160  0.32282071  0.23437610     0.39800
C989        C  0.39777718  0.24730056  0.26369387     0.38900
C990        C  0.40376834  0.34624032  0.24090650     0.35800
C991        C  0.45897043  0.31894381  0.22705158     0.36500
C992        C  0.46716252  0.34885926  0.32455884     0.39800
N993        N  0.39841328  0.22680379  0.26619382    -0.38300
N994        N  0.45452512  0.26404267  0.28599624    -0.39900
N995        N  0.34373859  0.33352385  0.22597717    -0.37600
N996        N  0.40609181  0.36577164  0.23460114    -0.40000
N997        N  0.40873539  0.32342416  0.32117680    -0.39800
N998        N  0.46920853  0.35395666  0.34451434    -0.37400
N999        N  0.51631956  0.34725966  0.22940380    -0.38500
N1000       N  0.45742467  0.31223455  0.20753667    -0.40100
C1001       C  0.64073228  0.30373537  0.25898211    -0.05100
C1002       C  0.63751572  0.31422111  0.28171409     0.09100
C1003       C  0.65592644  0.31298460  0.29895846    -0.02400
C1004       C  0.67729204  0.30079177  0.29369787    -0.00700
C1005       C  0.68047229  0.29032097  0.27099112    -0.04300
C1006       C  0.66248197  0.29235959  0.25340192     0.02700
C1007       C  0.61486978  0.32712569  0.28720124     0.09500
C1008       C  0.65279992  0.32422075  0.32209564     0.35400
C1009       C  0.66650223  0.28298596  0.22955165     0.38900
C1010       C  0.59626666  0.31538102  0.29935739    -0.04700
C1011       C  0.57431274  0.32710953  0.30308756     0.02500
C1012       C  0.57077596  0.35060258  0.29443918    -0.04300
C1013       C  0.58981930  0.36265525  0.28306174    -0.00500
C1014       C  0.61189221  0.35096881  0.27970188    -0.03100
C1015       C  0.59976108  0.29120767  0.30801265     0.36200
C1016       C  0.58649692  0.38662302  0.27380132     0.39800
C1017       C  0.55548401  0.31509915  0.31621815     0.38900
C1018       C  0.63167873  0.36337171  0.26851924     0.35800
C1019       C  0.62143986  0.30422433  0.24158554     0.36500
C1020       C  0.69599933  0.29887894  0.31165704     0.39800
N1021       N  0.54039332  0.30563561  0.32666971    -0.38300
N1022       N  0.60255619  0.27197095  0.31503835    -0.39900
N1023       N  0.58395191  0.40572062  0.26630939    -0.37600
N1024       N  0.64764338  0.37312412  0.25977402    -0.40000
N1025       N  0.65029696  0.33324180  0.34053314    -0.39800
N1026       N  0.71091230  0.29723760  0.32596353    -0.37400
N1027       N  0.66982276  0.27568370  0.21048476    -0.38500
N1028       N  0.60594182  0.30444374  0.22782255    -0.40100
C1029       C  0.88143463  0.38394153  0.82082968    -0.05100
C1030       C  0.87080079  0.37381971  0.80034076     0.09100
C1031       C  0.86986458  0.38694634  0.77881183    -0.02400
C1032       C  0.87942543  0.41020976  0.77779673    -0.00700
C1033       C  0.88984995  0.42052865  0.79837756    -0.04300
C1034       C  0.89092471  0.40723268  0.81987109     0.02700
C1035       C  0.86039242  0.34930194  0.80122348     0.09500
C1036       C  0.85945638  0.37620933  0.75757501     0.35400
C1037       C  0.90186169  0.41751502  0.84103851     0.38900
C1038       C  0.83696808  0.34590456  0.80970499    -0.04700
C1039       C  0.82559487  0.32367984  0.80671213     0.02500
C1040       C  0.83759298  0.30471840  0.79496957    -0.04300
C1041       C  0.86248715  0.30713782  0.79037887    -0.00500
C1042       C  0.87349090  0.32966179  0.79253795    -0.03100
C1043       C  0.82432590  0.36555903  0.82086661     0.36200
C1044       C  0.87700456  0.28687383  0.78317412     0.39800
C1045       C  0.80181111  0.32026717  0.81640882     0.38900
C1046       C  0.89800854  0.33291808  0.78478007     0.35800
C1047       C  0.88294466  0.37015887  0.84274465     0.36500
C1048       C  0.87970249  0.42292157  0.75521941     0.39800
N1049       N  0.78291567  0.31758781  0.82432368    -0.38300
N1050       N  0.81429408  0.38120903  0.82989038    -0.39900
N1051       N  0.88872923  0.27075048  0.77766559    -0.37600
N1052       N  0.91748065  0.33547449  0.77834149    -0.40000
N1053       N  0.85124091  0.36747274  0.74069749    -0.39800
N1054       N  0.88000266  0.43279535  0.73704864    -0.37400
N1055       N  0.91064303  0.42570649  0.85790378    -0.38500
N1056       N  0.88415435  0.35908125  0.86017821    -0.40100
C1057       C  0.87372650  0.54589490  0.80474990    -0.05100
C1058       C  0.86523434  0.55328948  0.78212230     0.09100
C1059       C  0.86810261  0.53800392  0.76220034    -0.02400
C1060       C  0.87946480  0.51556172  0.76492777    -0.00700
C1061       C  0.88827045  0.50839511  0.78752170    -0.04300
C1062       C  0.88531520  0.52365035  0.80740086     0.02700
C1063       C  0.85418414  0.57763455  0.77924690     0.09500
C1064       C  0.85976595  0.54561945  0.73881951     0.35400
C1065       C  0.89434652  0.51648009  0.83066515     0.38900
C1066       C  0.86764057  0.59649595  0.76943886    -0.04700
C1067       C  0.85745504  0.61946485  0.76670632     0.02500
C1068       C  0.83363423  0.62405005  0.77433612    -0.04300
C1069       C  0.82081287  0.60530360  0.78564488    -0.00500
C1070       C  0.83079000  0.58216714  0.78743719    -0.03100
C1071       C  0.89217477  0.59219015  0.76221874     0.36200
C1072       C  0.79761998  0.60983392  0.79632935     0.39800
C1073       C  0.87164083  0.63801300  0.75553252     0.38900
C1074       C  0.81688168  0.56287544  0.79765550     0.35800
C1075       C  0.87087607  0.56144630  0.82527593     0.36500
C1076       C  0.88282248  0.50022278  0.74433497     0.39800
N1077       N  0.88321151  0.65269858  0.74676396    -0.38300
N1078       N  0.91174524  0.58868700  0.75653798    -0.39900
N1079       N  0.77920007  0.61341178  0.80500886    -0.37600
N1080       N  0.80575702  0.54750410  0.80579344    -0.40000
N1081       N  0.85327954  0.55180504  0.72014143    -0.39800
N1082       N  0.88554032  0.48810808  0.72780534    -0.37400
N1083       N  0.90163269  0.51079025  0.84920434    -0.38500
N1084       N  0.86845513  0.57387697  0.84161472    -0.40100
C1085       C  0.76122301  0.39691576  0.65721658    -0.05100
C1086       C  0.74310976  0.38118775  0.66492786     0.09100
C1087       C  0.71886128  0.38695835  0.66035885    -0.02400
C1088       C  0.71291850  0.40817267  0.64790512    -0.00700
C1089       C  0.73109809  0.42424966  0.64110666    -0.04300
C1090       C  0.75523139  0.41857849  0.64594911     0.02700
C1091       C  0.75003011  0.35829230  0.67716852     0.09500
C1092       C  0.70009500  0.37107185  0.66844540     0.35400
C1093       C  0.77407019  0.43479180  0.63864183     0.38900
C1094       C  0.76067615  0.35880877  0.70008794    -0.04700
C1095       C  0.76976824  0.33769456  0.71050128     0.02500
C1096       C  0.76706374  0.31542328  0.69874322    -0.04300
C1097       C  0.75695128  0.31511425  0.67538574    -0.00500
C1098       C  0.74843429  0.33642064  0.66479580    -0.03100
C1099       C  0.76240680  0.38124440  0.71293356     0.36200
C1100       C  0.75556486  0.29313733  0.66177114     0.39800
C1101       C  0.78305097  0.33921535  0.73280694     0.38900
C1102       C  0.73819473  0.33601238  0.64092310     0.35800
C1103       C  0.78617910  0.39047681  0.66032068     0.36500
C1104       C  0.68817530  0.41349003  0.64214817     0.39800
N1105       N  0.79384937  0.34048658  0.75045360    -0.38300
N1106       N  0.76382705  0.39917651  0.72310000    -0.39900
N1107       N  0.75479688  0.27588363  0.65042946    -0.37600
N1108       N  0.72983008  0.33607356  0.62197292    -0.40000
N1109       N  0.68512455  0.35836428  0.67484586    -0.39800
N1110       N  0.66843566  0.41763539  0.63742755    -0.37400
N1111       N  0.78897002  0.44786670  0.63286365    -0.38500
N1112       N  0.80606171  0.38526921  0.66278807    -0.40100
C1113       C  0.74929325  0.60055012  0.65521453    -0.05100
C1114       C  0.75984722  0.57941938  0.66405307     0.09100
C1115       C  0.77697285  0.58066075  0.68257207    -0.02400
C1116       C  0.78342709  0.60294486  0.69229626    -0.00700
C1117       C  0.77214751  0.62403101  0.68418396    -0.04300
C1118       C  0.75538654  0.62280258  0.66526752     0.02700
C1119       C  0.75273671  0.55578953  0.65391844     0.09500
C1120       C  0.78736040  0.55891465  0.69215390     0.35400
C1121       C  0.74325375  0.64419406  0.65711339     0.38900
C1122       C  0.76285315  0.54777980  0.63230606    -0.04700
C1123       C  0.75579538  0.52571502  0.62241688     0.02500
C1124       C  0.73868169  0.51136845  0.63429060    -0.04300
C1125       C  0.72872452  0.51943202  0.65606807    -0.00500
C1126       C  0.73563625  0.54162725  0.66574969    -0.03100
C1127       C  0.78060866  0.56234035  0.62033134     0.36200
C1128       C  0.71068225  0.50532297  0.66812227     0.39800
C1129       C  0.76664176  0.51764962  0.60030203     0.38900
C1130       C  0.72487629  0.55016037  0.68772408     0.35800
C1131       C  0.73137386  0.59922798  0.63645289     0.36500
C1132       C  0.80201055  0.60416284  0.71036146     0.39800
N1133       N  0.77530550  0.51136180  0.58261713    -0.38300
N1134       N  0.79473904  0.57407321  0.61089331    -0.39900
N1135       N  0.69628686  0.49403304  0.67769695    -0.37600
N1136       N  0.71630184  0.55702694  0.70523213    -0.40000
N1137       N  0.79543582  0.54157572  0.70003790    -0.39800
N1138       N  0.81710296  0.60485099  0.72452119    -0.37400
N1139       N  0.73339086  0.66113043  0.65053504    -0.38500
N1140       N  0.71702172  0.59812977  0.62154388    -0.40100
C1141       C  0.60285175  0.75983215  0.83247321    -0.05100
C1142       C  0.62244291  0.77569150  0.83367022     0.09100
C1143       C  0.61996112  0.79724386  0.84655684    -0.02400
C1144       C  0.59818678  0.80286156  0.85817363    -0.00700
C1145       C  0.57845615  0.78709970  0.85681348    -0.04300
C1146       C  0.58098453  0.76551014  0.84386781     0.02700
C1147       C  0.64573754  0.76963373  0.82142966     0.09500
C1148       C  0.63996747  0.81361535  0.84793468     0.35400
C1149       C  0.56136861  0.74861173  0.84300751     0.38900
C1150       C  0.65130731  0.77961797  0.79895394    -0.04700
C1151       C  0.67312764  0.77395070  0.78742290     0.02500
C1152       C  0.68945050  0.75746529  0.79784141    -0.04300
C1153       C  0.68384284  0.74771940  0.82060801    -0.00500
C1154       C  0.66226953  0.75393661  0.83231951    -0.03100
C1155       C  0.63432208  0.79560680  0.78755471     0.36200
C1156       C  0.69983663  0.73068060  0.83190959     0.39800
C1157       C  0.67902512  0.78592893  0.76522124     0.38900
C1158       C  0.65693554  0.74403911  0.85566853     0.35800
C1159       C  0.60531344  0.73747808  0.81964448     0.36500
C1160       C  0.59598757  0.82515318  0.87116961     0.39800
N1161       N  0.68359841  0.79575507  0.74762033    -0.38300
N1162       N  0.62067964  0.80829000  0.77849712    -0.39900
N1163       N  0.71255672  0.71715491  0.84108350    -0.37600
N1164       N  0.65265149  0.73616751  0.87430089    -0.40000
N1165       N  0.65595394  0.82666762  0.84894929    -0.39800
N1166       N  0.59422906  0.84292125  0.88157347    -0.37400
N1167       N  0.54566409  0.73519506  0.84237996    -0.38500
N1168       N  0.60732363  0.71958987  0.80949988    -0.40100
C1169       C  0.52046857  0.44050555  0.66918564    -0.05100
C1170       C  0.53085940  0.45736584  0.68476176     0.09100
C1171       C  0.54469555  0.44961343  0.70445340    -0.02400
C1172       C  0.54697430  0.42512401  0.70939713    -0.00700
C1173       C  0.53547217  0.40826725  0.69458832    -0.04300
C1174       C  0.52316492  0.41592809  0.67388039     0.02700
C1175       C  0.52687490  0.48345114  0.68139777     0.09500
C1176       C  0.55595862  0.46699320  0.72009820     0.35400
C1177       C  0.51409730  0.39848304  0.65700093     0.38900
C1178       C  0.51118533  0.49553812  0.69688701    -0.04700
C1179       C  0.51145458  0.52061025  0.69805699     0.02500
C1180       C  0.52749742  0.53383276  0.68356093    -0.04300
C1181       C  0.54183904  0.52161275  0.66667834    -0.00500
C1182       C  0.54129819  0.49646973  0.66546872    -0.03100
C1183       C  0.49549526  0.48199668  0.71245078     0.36200
C1184       C  0.55725161  0.53476589  0.65058077     0.39800
C1185       C  0.49617097  0.53243826  0.71535695     0.38900
C1186       C  0.55589793  0.48385347  0.64819051     0.35800
C1187       C  0.50658158  0.44843836  0.64873953     0.36500
C1188       C  0.56054201  0.41743368  0.73018123     0.39800
N1189       N  0.48391200  0.54184062  0.72909066    -0.38300
N1190       N  0.48303249  0.47123004  0.72490832    -0.39900
N1191       N  0.56965833  0.54513923  0.63773697    -0.37600
N1192       N  0.56725411  0.47365055  0.63426092    -0.40000
N1193       N  0.56477360  0.48094008  0.73256887    -0.39800
N1194       N  0.57154561  0.41150183  0.74670801    -0.37400
N1195       N  0.50721421  0.38454734  0.64335278    -0.38500
N1196       N  0.49547574  0.45469792  0.63239910    -0.40100
C1197       C  0.61236945  0.60879719  0.72340962    -0.05100
C1198       C  0.61917929  0.62961734  0.71099997     0.09100
C1199       C  0.60493657  0.63818086  0.69198221    -0.02400
C1200       C  0.58361044  0.62630672  0.68577439    -0.00700
C1201       C  0.57683404  0.60539258  0.69811389    -0.04300
C1202       C  0.59139645  0.59656137  0.71684017     0.02700
C1203       C  0.64167671  0.64219228  0.71787019     0.09500
C1204       C  0.61220250  0.65931308  0.67896488     0.35400
C1205       C  0.58424459  0.57555615  0.73019795     0.38900
C1206       C  0.66389925  0.63174303  0.71240174    -0.04700
C1207       C  0.68520613  0.64233618  0.72048567     0.02500
C1208       C  0.68462299  0.66462925  0.73239501    -0.04300
C1209       C  0.66221356  0.67522689  0.73770253    -0.00500
C1210       C  0.64082517  0.66379488  0.73079804    -0.03100
C1211       C  0.66484095  0.61024756  0.69792286     0.36200
C1212       C  0.66100471  0.69763886  0.75069143     0.39800
C1213       C  0.70755902  0.62991804  0.71647577     0.38900
C1214       C  0.61789601  0.67425157  0.73692950     0.35800
C1215       C  0.62676668  0.60030232  0.74332140     0.36500
C1216       C  0.56861525  0.63563492  0.66671520     0.39800
N1217       N  0.72500173  0.61920194  0.71367762    -0.38300
N1218       N  0.66565904  0.59322388  0.68623898    -0.39900
N1219       N  0.65986305  0.71553555  0.76096506    -0.37600
N1220       N  0.59959493  0.68259858  0.74174897    -0.40000
N1221       N  0.61799282  0.67629627  0.66876532    -0.39800
N1222       N  0.55659463  0.64314424  0.65159254    -0.37400
N1223       N  0.57856451  0.55881292  0.74087561    -0.38500
N1224       N  0.63836431  0.59363841  0.75915307    -0.40100
C1225       C  0.82628417  0.95059496  0.50866660    -0.05100
C1226       C  0.84691590  0.96151971  0.49920102     0.09100
C1227       C  0.86536076  0.94723392  0.48966994    -0.02400
C1228       C  0.86274135  0.92221198  0.48859198    -0.00700
C1229       C  0.84184519  0.91129432  0.49749649    -0.04300
C1230       C  0.82379144  0.92553766  0.50792608     0.02700
C1231       C  0.84889443  0.98817358  0.49851898     0.09500
C1232       C  0.88707861  0.95837904  0.48108101     0.35400
C1233       C  0.80229348  0.91447573  0.51720914     0.38900
C1234       C  0.86113982  0.00046894  0.51676537    -0.04700
C1235       C  0.86277614  0.02561357  0.51618570     0.02500
C1236       C  0.85163835  0.03884106  0.49751782    -0.04300
C1237       C  0.84005308  0.02621269  0.47876410    -0.00500
C1238       C  0.83869088  0.00104447  0.47937167    -0.03100
C1239       C  0.87184702  0.98713262  0.53631274     0.36200
C1240       C  0.82880782  0.03887442  0.45907406     0.39800
C1241       C  0.87652858  0.03767744  0.53460948     0.38900
C1242       C  0.82640556  0.98824779  0.46042087     0.35800
C1243       C  0.80758672  0.96521632  0.51905284     0.36500
C1244       C  0.88174331  0.90764367  0.47870374     0.39800
N1245       N  0.88754065  0.04721146  0.54932510    -0.38300
N1246       N  0.88033092  0.97642721  0.55188459    -0.39900
N1247       N  0.81994658  0.04888575  0.44324392    -0.37600
N1248       N  0.81658296  0.97795801  0.44538658    -0.40000
N1249       N  0.90444844  0.96736410  0.47443817    -0.39800
N1250       N  0.89689906  0.89598765  0.47084262    -0.37400
N1251       N  0.78517620  0.90559999  0.52461981    -0.38500
N1252       N  0.79269037  0.97689718  0.52736143    -0.40100
C1253       C  0.80901597  0.80346606  0.55988808    -0.05100
C1254       C  0.82569531  0.80657456  0.57862141     0.09100
C1255       C  0.84512631  0.82224809  0.57555362    -0.02400
C1256       C  0.84772058  0.83506780  0.55401187    -0.00700
C1257       C  0.83050295  0.83276885  0.53553966    -0.04300
C1258       C  0.81131130  0.81659312  0.53845235     0.02700
C1259       C  0.82189367  0.79464311  0.60227142     0.09500
C1260       C  0.86213146  0.82558575  0.59489985     0.35400
C1261       C  0.79327710  0.81421225  0.51989694     0.38900
C1262       C  0.83270898  0.77250436  0.60742040    -0.04700
C1263       C  0.82858205  0.76115909  0.62960377     0.02500
C1264       C  0.81416957  0.77233636  0.64727531    -0.04300
C1265       C  0.80363140  0.79480070  0.64196705    -0.00500
C1266       C  0.80740860  0.80574259  0.61956565    -0.03100
C1267       C  0.84807099  0.76138296  0.58976893     0.36200
C1268       C  0.78766778  0.80628280  0.65880302     0.39800
C1269       C  0.83881014  0.73770246  0.63376353     0.38900
C1270       C  0.79608060  0.82842771  0.61404031     0.35800
C1271       C  0.78911078  0.78720432  0.56299326     0.36500
C1272       C  0.86846452  0.85022439  0.55071236     0.39800
N1273       N  0.84671029  0.71881152  0.63664204    -0.38300
N1274       N  0.86044097  0.75256108  0.57575961    -0.39900
N1275       N  0.77483764  0.81585086  0.67185973    -0.37600
N1276       N  0.78705530  0.84647029  0.60947969    -0.40000
N1277       N  0.87557844  0.82827554  0.61043379    -0.39800
N1278       N  0.88504021  0.86225590  0.54801403    -0.37400
N1279       N  0.77889642  0.81236844  0.50508401    -0.38500
N1280       N  0.77320899  0.77425977  0.56548234    -0.40100
C1281       C  0.67028289  0.71041514  0.56848873    -0.05100
C1282       C  0.68783372  0.69648715  0.58010914     0.09100
C1283       C  0.69419001  0.67393977  0.57076596    -0.02400
C1284       C  0.68290144  0.66530891  0.54991808    -0.00700
C1285       C  0.66550014  0.67935460  0.53822199    -0.04300
C1286       C  0.65903167  0.70180266  0.54766281     0.02700
C1287       C  0.69886283  0.70502181  0.60289629     0.09500
C1288       C  0.71237483  0.65969564  0.58263463     0.35400
C1289       C  0.64080374  0.71606582  0.53587897     0.38900
C1290       C  0.68641629  0.70242676  0.62459457    -0.04700
C1291       C  0.69758571  0.70829528  0.64647827     0.02500
C1292       C  0.72149354  0.71672794  0.64669566    -0.04300
C1293       C  0.73289651  0.72150089  0.62460718    -0.00500
C1294       C  0.72177379  0.71531185  0.60284832    -0.03100
C1295       C  0.66221468  0.69318234  0.62416550     0.36200
C1296       C  0.75575931  0.73355975  0.62401534     0.39800
C1297       C  0.68453064  0.70489588  0.66856378     0.38900
C1298       C  0.73398011  0.71929725  0.58034134     0.35800
C1299       C  0.66393510  0.73366795  0.57794504     0.36500
C1300       C  0.68857141  0.64168962  0.54094363     0.39800
N1301       N  0.67372062  0.70236442  0.68598322    -0.38300
N1302       N  0.64289116  0.68592111  0.62310970    -0.39900
N1303       N  0.77385484  0.74342656  0.62296498    -0.37600
N1304       N  0.74374408  0.72242976  0.56240202    -0.40000
N1305       N  0.72702136  0.64846462  0.59204212    -0.39800
N1306       N  0.69291742  0.62273695  0.53395413    -0.37400
N1307       N  0.62614025  0.72731979  0.52652756    -0.38500
N1308       N  0.65887648  0.75221214  0.58551831    -0.40100
C1309       C  0.67953849  0.71056674  0.42473842    -0.05100
C1310       C  0.68730933  0.69401156  0.40746572     0.09100
C1311       C  0.68570306  0.66927977  0.41204654    -0.02400
C1312       C  0.67679281  0.66114152  0.43414078    -0.00700
C1313       C  0.66874754  0.67770796  0.45128450    -0.04300
C1314       C  0.66999460  0.70243624  0.44648902     0.02700
C1315       C  0.69856650  0.70267225  0.38498280     0.09500
C1316       C  0.69314892  0.65229874  0.39394644     0.35400
C1317       C  0.66092969  0.71955667  0.46370313     0.38900
C1318       C  0.72279917  0.70926083  0.38516005    -0.04700
C1319       C  0.73410987  0.71616202  0.36382862     0.02500
C1320       C  0.72115613  0.71649969  0.34184890    -0.04300
C1321       C  0.69638882  0.71081765  0.34211822    -0.00500
C1322       C  0.68523160  0.70395874  0.36364357    -0.03100
C1323       C  0.73624061  0.70850536  0.40742529     0.36200
C1324       C  0.68231443  0.71083132  0.32030550     0.39800
C1325       C  0.75924929  0.72257164  0.36490493     0.38900
C1326       C  0.66003873  0.69776492  0.36386649     0.35800
C1327       C  0.68137926  0.73597364  0.42005145     0.36500
C1328       C  0.67654809  0.63583760  0.43954775     0.39800
N1329       N  0.77935027  0.72733569  0.36605427    -0.38300
N1330       N  0.74689587  0.70795350  0.42519129    -0.39900
N1331       N  0.67072133  0.71081931  0.30313826    -0.37600
N1332       N  0.63996457  0.69279448  0.36409287    -0.40000
N1333       N  0.69889478  0.63883776  0.37934915    -0.39800
N1334       N  0.67662940  0.61565920  0.44397256    -0.37400
N1335       N  0.65365364  0.73327753  0.47733006    -0.38500
N1336       N  0.68296170  0.75622830  0.41633116    -0.40100
C1337       C  0.83683462  0.80267002  0.36102346    -0.05100
C1338       C  0.81873920  0.80578558  0.37829965     0.09100
C1339       C  0.79527953  0.79782978  0.37343436    -0.02400
C1340       C  0.79015800  0.78605404  0.35179064    -0.00700
C1341       C  0.80861241  0.78153814  0.33525707    -0.04300
C1342       C  0.83172689  0.79070160  0.33941970     0.02700
C1343       C  0.82410860  0.81782774  0.40155954     0.09500
C1344       C  0.77637019  0.80196138  0.39064948     0.35400
C1345       C  0.85012005  0.78796013  0.32137573     0.38900
C1346       C  0.81778992  0.84190489  0.40494142    -0.04700
C1347       C  0.82088263  0.85281014  0.42749036     0.02500
C1348       C  0.83048699  0.83962050  0.44707664    -0.04300
C1349       C  0.83730704  0.81543394  0.44323407    -0.00500
C1350       C  0.83431555  0.80478036  0.42053947    -0.03100
C1351       C  0.80781217  0.85537172  0.38507225     0.36200
C1352       C  0.84752016  0.80120136  0.46241245     0.39800
C1353       C  0.81310886  0.87735899  0.43040125     0.38900
C1354       C  0.84173429  0.78024871  0.41661069     0.35800
C1355       C  0.86061081  0.81195259  0.36544868     0.36500
C1356       C  0.76564752  0.77987213  0.34585616     0.39800
N1357       N  0.80692674  0.89696828  0.43252633    -0.38300
N1358       N  0.79985181  0.86597677  0.36915919    -0.39900
N1359       N  0.85542964  0.78964292  0.47767610    -0.37600
N1360       N  0.84781939  0.76077010  0.41335013    -0.40000
N1361       N  0.76126706  0.80535491  0.40433560    -0.39800
N1362       N  0.74606083  0.77528272  0.34098327    -0.37400
N1363       N  0.86465757  0.78579578  0.30684882    -0.38500
N1364       N  0.87958686  0.81939409  0.36896420    -0.40100
C1365       C  0.54135849  0.78165805  0.97087959    -0.05100
C1366       C  0.53403700  0.80240862  0.98314673     0.09100
C1367       C  0.52757570  0.82297597  0.97000728    -0.02400
C1368       C  0.52854921  0.82280640  0.94471756    -0.00700
C1369       C  0.53578605  0.80196012  0.93246068    -0.04300
C1370       C  0.54193277  0.78133632  0.94566542     0.02700
C1371       C  0.53095508  0.80168802  0.00979983     0.09500
C1372       C  0.51912904  0.84397083  0.98259374     0.35400
C1373       C  0.54731122  0.75926334  0.93321023     0.38900
C1374       C  0.54991901  0.80772652  0.02523579    -0.04700
C1375       C  0.54721819  0.80573145  0.05031440     0.02500
C1376       C  0.52556937  0.79681436  0.06035922    -0.04300
C1377       C  0.50626226  0.79164535  0.04447852    -0.00500
C1378       C  0.50906374  0.79411238  0.01948570    -0.03100
C1379       C  0.57243357  0.81566699  0.01518539     0.36200
C1380       C  0.48337548  0.78332867  0.05321197     0.39800
C1381       C  0.56678344  0.81351478  0.06553497     0.38900
C1382       C  0.48945414  0.78833125  0.00341644     0.35800
C1383       C  0.54744287  0.76031438  0.98426731     0.36500
C1384       C  0.52179371  0.84394735  0.93134689     0.39800
N1385       N  0.58245412  0.81972622  0.07757990    -0.38300
N1386       N  0.59042746  0.82191711  0.00718906    -0.39900
N1387       N  0.46476126  0.77692032  0.05947257    -0.37600
N1388       N  0.47395435  0.78375539  0.99045704    -0.40000
N1389       N  0.51224688  0.86057461  0.99279344    -0.39800
N1390       N  0.51634876  0.86088842  0.92079507    -0.37400
N1391       N  0.55127176  0.74166834  0.92312904    -0.38500
N1392       N  0.55223813  0.74328448  0.99497855    -0.40100
C1393       C  0.59110927  0.77339811  0.17242278    -0.05100
C1394       C  0.61054391  0.76384604  0.15948989     0.09100
C1395       C  0.60744899  0.75850005  0.13502967    -0.02400
C1396       C  0.58536096  0.76302325  0.12347117    -0.00700
C1397       C  0.56600412  0.77376511  0.13605845    -0.04300
C1398       C  0.56919877  0.77878308  0.16078389     0.02700
C1399       C  0.63458867  0.76028359  0.17134782     0.09500
C1400       C  0.62724679  0.74851904  0.12157196     0.35400
C1401       C  0.55054863  0.79055695  0.17432879     0.38900
C1402       C  0.64360474  0.73706076  0.17564685    -0.04700
C1403       C  0.66664891  0.73389655  0.18564115     0.02500
C1404       C  0.68049415  0.75388194  0.19243357    -0.04300
C1405       C  0.67122565  0.77703638  0.18893789    -0.00500
C1406       C  0.64867342  0.78024873  0.17786952    -0.03100
C1407       C  0.62905481  0.71638539  0.17003355     0.36200
C1408       C  0.68478672  0.79754909  0.19705044     0.39800
C1409       C  0.67606944  0.70998929  0.18911684     0.38900
C1410       C  0.64005357  0.80416271  0.17290209     0.35800
C1411       C  0.59378339  0.77781726  0.19786493     0.36500
C1412       C  0.58282302  0.75617383  0.09855211     0.39800
N1413       N  0.68357453  0.69090173  0.19172143    -0.38300
N1414       N  0.61749770  0.69985514  0.16554785    -0.39900
N1415       N  0.69551312  0.81389114  0.20375896    -0.37600
N1416       N  0.63311601  0.82322076  0.16889192    -0.40000
N1417       N  0.64299657  0.74042446  0.11090972    -0.39800
N1418       N  0.58098123  0.75079888  0.07864466    -0.37400
N1419       N  0.53595153  0.80002063  0.18548036    -0.38500
N1420       N  0.59600537  0.78132381  0.21814514    -0.40100
C1421       C  0.54179341  0.50339415  0.30156170    -0.05100
C1422       C  0.52614121  0.49548511  0.31959861     0.09100
C1423       C  0.51270839  0.51205853  0.33287849    -0.02400
C1424       C  0.51377552  0.53649136  0.32710462    -0.00700
C1425       C  0.52804873  0.54427077  0.30777200    -0.04300
C1426       C  0.54253397  0.52768361  0.29538440     0.02700
C1427       C  0.52136739  0.46950115  0.32168775     0.09500
C1428       C  0.49714963  0.50379597  0.35183475     0.35400
C1429       C  0.55668332  0.53510093  0.27496575     0.38900
C1430       C  0.53665423  0.45474421  0.33516678    -0.04700
C1431       C  0.53556170  0.42976867  0.33236280     0.02500
C1432       C  0.51966509  0.41961044  0.31540481    -0.04300
C1433       C  0.50254359  0.43453808  0.30393706    -0.00500
C1434       C  0.50343569  0.45938845  0.30720642    -0.03100
C1435       C  0.55405678  0.46544167  0.35115891     0.36200
C1436       C  0.48474590  0.42488582  0.28765112     0.39800
C1437       C  0.55056299  0.41462559  0.34717424     0.38900
C1438       C  0.48676713  0.47479879  0.29450344     0.35800
C1439       C  0.55617810  0.48622914  0.28847309     0.36500
C1440       C  0.49989357  0.55352136  0.34084062     0.39800
N1441       N  0.56239579  0.40261020  0.35920699    -0.38300
N1442       N  0.56789779  0.47413816  0.36386447    -0.39900
N1443       N  0.47041998  0.41730597  0.27475215    -0.37600
N1444       N  0.47350118  0.48710284  0.28441720    -0.40000
N1445       N  0.48470878  0.49722562  0.36695548    -0.39800
N1446       N  0.48876912  0.56705639  0.35180190    -0.37400
N1447       N  0.56784167  0.54096657  0.25859476    -0.38500
N1448       N  0.56763841  0.47248807  0.27812904    -0.40100
C1449       C  0.60654846  0.63115764  0.28700439    -0.05100
C1450       C  0.60903883  0.64009289  0.26358225     0.09100
C1451       C  0.59017799  0.63782097  0.24700310    -0.02400
C1452       C  0.56886362  0.62637353  0.25375574    -0.00700
C1453       C  0.56655795  0.61667733  0.27701040    -0.04300
C1454       C  0.58566358  0.61885920  0.29352373     0.02700
C1455       C  0.63190953  0.65152403  0.25644029     0.09500
C1456       C  0.59283070  0.64712730  0.22292957     0.35400
C1457       C  0.58400787  0.60847794  0.31724078     0.38900
C1458       C  0.65237833  0.63735324  0.25282126    -0.04700
C1459       C  0.67482905  0.64814285  0.24940389     0.02500
C1460       C  0.67682035  0.67345821  0.24898425    -0.04300
C1461       C  0.65553839  0.68744861  0.25038851    -0.00500
C1462       C  0.63337639  0.67647710  0.25467604    -0.03100
C1463       C  0.65027982  0.61151996  0.25316286     0.36200
C1464       C  0.65589388  0.71321137  0.24746738     0.39800
C1465       C  0.69569420  0.63283529  0.24733526     0.38900
C1466       C  0.61204262  0.69094008  0.25789808     0.35800
C1467       C  0.62545089  0.63499603  0.30446084     0.36500
C1468       C  0.54986637  0.62365564  0.23626995     0.39800
N1469       N  0.71220641  0.62045830  0.24575477    -0.38300
N1470       N  0.64850776  0.59094581  0.25343747    -0.39900
N1471       N  0.65566654  0.73376762  0.24543525    -0.37600
N1472       N  0.59505053  0.70247220  0.26040106    -0.40000
N1473       N  0.59490339  0.65466288  0.20377823    -0.39800
N1474       N  0.53490202  0.62166105  0.22208619    -0.37400
N1475       N  0.58295751  0.59995956  0.33606527    -0.38500
N1476       N  0.64053427  0.63829076  0.31828607    -0.40100
C1477       C  0.85184797  0.54505957  0.18183990    -0.05100
C1478       C  0.86206931  0.56332492  0.19587039     0.09100
C1479       C  0.88407352  0.55939282  0.20755273    -0.02400
C1480       C  0.89572263  0.53717859  0.20552800    -0.00700
C1481       C  0.88545170  0.51858311  0.19162730    -0.04300
C1482       C  0.86334096  0.52270103  0.17985775     0.02700
C1483       C  0.84875296  0.58607809  0.20014381     0.09500
C1484       C  0.89439659  0.57810256  0.22228811     0.35400
C1485       C  0.85231808  0.50410320  0.16556159     0.38900
C1486       C  0.82950140  0.58631227  0.21629677    -0.04700
C1487       C  0.81756939  0.60783742  0.22153396     0.02500
C1488       C  0.82563939  0.62973364  0.21153342    -0.04300
C1489       C  0.84500238  0.62929152  0.19518346    -0.00500
C1490       C  0.85605879  0.60746459  0.18912232    -0.03100
C1491       C  0.82225783  0.56428223  0.22790497     0.36200
C1492       C  0.85346078  0.65115304  0.18416160     0.39800
C1493       C  0.79718071  0.60701851  0.23749797     0.38900
C1494       C  0.87484501  0.60689957  0.17130751     0.35800
C1495       C  0.82932557  0.54932186  0.16960147     0.36500
C1496       C  0.91769730  0.53329307  0.21889047     0.39800
N1497       N  0.78071192  0.60572840  0.24989879    -0.38300
N1498       N  0.81658288  0.54668003  0.23709906    -0.39900
N1499       N  0.86036608  0.66860918  0.17554781    -0.37600
N1500       N  0.88969466  0.60645104  0.15695226    -0.40000
N1501       N  0.90259884  0.59305196  0.23398805    -0.39800
N1502       N  0.93520809  0.53028091  0.22956919    -0.37400
N1503       N  0.84335101  0.48924147  0.15431921    -0.38500
N1504       N  0.81133286  0.55279001  0.15992111    -0.40100
C1505       C  0.85068784  0.40546881  0.20667271    -0.05100
C1506       C  0.86211265  0.38434770  0.19917322     0.09100
C1507       C  0.88382336  0.38574859  0.18660537    -0.02400
C1508       C  0.89465115  0.40810400  0.18240649    -0.00700
C1509       C  0.88416992  0.42948419  0.19142699    -0.04300
C1510       C  0.86143590  0.42792576  0.20272412     0.02700
C1511       C  0.85148487  0.36058259  0.20528112     0.09500
C1512       C  0.89526295  0.36402310  0.17829113     0.35400
C1513       C  0.84880135  0.44912517  0.21062871     0.38900
C1514       C  0.83852725  0.34745875  0.18800337    -0.04700
C1515       C  0.82765267  0.32560977  0.19430731     0.02500
C1516       C  0.82870780  0.31745745  0.21816380    -0.04300
C1517       C  0.84247248  0.33005445  0.23516219    -0.00500
C1518       C  0.85392829  0.35148110  0.22871320    -0.03100
C1519       C  0.83598274  0.35673812  0.16392381     0.36200
C1520       C  0.84458825  0.32106740  0.25942212     0.39800
C1521       C  0.81612146  0.31112358  0.17615194     0.38900
C1522       C  0.86801880  0.36437930  0.24627257     0.35800
C1523       C  0.82787921  0.40393617  0.21890687     0.36500
C1524       C  0.91626106  0.40879901  0.16809118     0.39800
N1525       N  0.80723158  0.29942270  0.16157702    -0.38300
N1526       N  0.83392890  0.36425767  0.14474820    -0.39900
N1527       N  0.84622806  0.31387301  0.27875550    -0.37600
N1528       N  0.87925297  0.37469210  0.26026702    -0.40000
N1529       N  0.90441332  0.34674567  0.17159080    -0.39800
N1530       N  0.93348447  0.40931887  0.15667819    -0.37400
N1531       N  0.83840655  0.46591788  0.21674951    -0.38500
N1532       N  0.80975134  0.40257976  0.22872647    -0.40100
C1533       C  0.74283357  0.48309200  0.48401581    -0.05100
C1534       C  0.72154952  0.47038565  0.48861177     0.09100
C1535       C  0.70808993  0.46094540  0.46950171    -0.02400
C1536       C  0.71597179  0.46415773  0.44579660    -0.00700
C1537       C  0.73756848  0.47636918  0.44129375    -0.04300
C1538       C  0.75097857  0.48582425  0.46042618     0.02700
C1539       C  0.71469809  0.46578908  0.51391028     0.09500
C1540       C  0.68657232  0.44740553  0.47431659     0.35400
C1541       C  0.77385566  0.49714534  0.45595922     0.38900
C1542       C  0.70257564  0.48345945  0.52700986    -0.04700
C1543       C  0.70228413  0.48244329  0.55219929     0.02500
C1544       C  0.71439164  0.46375828  0.56439829    -0.04300
C1545       C  0.72462825  0.44488337  0.55089292    -0.00500
C1546       C  0.72422608  0.44573247  0.52572009    -0.03100
C1547       C  0.69113307  0.50307631  0.51445657     0.36200
C1548       C  0.73759745  0.42563741  0.56251807     0.39800
C1549       C  0.69004945  0.50104669  0.56544820     0.38900
C1550       C  0.73464210  0.42649337  0.51181264     0.35800
C1551       C  0.75678701  0.49264230  0.50373510     0.36500
C1552       C  0.70186123  0.45491758  0.42608368     0.39800
N1553       N  0.68037579  0.51598856  0.57595267    -0.38300
N1554       N  0.68192209  0.51861701  0.50435017    -0.39900
N1555       N  0.74812384  0.41033590  0.57167003    -0.37600
N1556       N  0.74269092  0.41110385  0.50061289    -0.40000
N1557       N  0.66948022  0.43644770  0.47812276    -0.39800
N1558       N  0.69038291  0.44758224  0.41049150    -0.37400
N1559       N  0.79221216  0.50595432  0.45243692    -0.38500
N1560       N  0.76784926  0.50020318  0.51952275    -0.40100
C1561       C  0.76009639  0.56696381  0.36764834    -0.05100
C1562       C  0.75814582  0.56632005  0.34256916     0.09100
C1563       C  0.75451678  0.54450569  0.33071433    -0.02400
C1564       C  0.75305590  0.52316531  0.34390318    -0.00700
C1565       C  0.75648223  0.52337774  0.36911128    -0.04300
C1566       C  0.75960623  0.54560060  0.38092534     0.02700
C1567       C  0.76103533  0.58864727  0.32852152     0.09500
C1568       C  0.75274279  0.54406677  0.30480797     0.35400
C1569       C  0.76306178  0.54683104  0.40661122     0.38900
C1570       C  0.78417732  0.59645438  0.32237975    -0.04700
C1571       C  0.78711792  0.61762720  0.30922716     0.02500
C1572       C  0.76693944  0.63135009  0.30284856    -0.04300
C1573       C  0.74380198  0.62378731  0.30940473    -0.00500
C1574       C  0.74081303  0.60207342  0.32166074    -0.03100
C1575       C  0.80489560  0.58251814  0.32947679     0.36200
C1576       C  0.72322932  0.63887805  0.30456921     0.39800
C1577       C  0.81079908  0.62498167  0.30169162     0.38900
C1578       C  0.71699997  0.59337456  0.32698247     0.35800
C1579       C  0.76305579  0.58973492  0.37969591     0.36500
C1580       C  0.74722330  0.50124287  0.33134675     0.39800
N1581       N  0.82963599  0.63081147  0.29551277    -0.38300
N1582       N  0.82134846  0.57134784  0.33525334    -0.39900
N1583       N  0.70684265  0.65105868  0.30114017    -0.37600
N1584       N  0.69799654  0.58628941  0.33095483    -0.40000
N1585       N  0.75148643  0.54379026  0.28414852    -0.39800
N1586       N  0.74250936  0.48384197  0.32123584    -0.37400
N1587       N  0.76572797  0.54828735  0.42708791    -0.38500
N1588       N  0.76537115  0.60793117  0.38920924    -0.40100
C1589       C  0.75553231  0.40277240  0.34937055    -0.05100
C1590       C  0.77873883  0.39296386  0.34884119     0.09100
C1591       C  0.79811463  0.40543129  0.35906783    -0.02400
C1592       C  0.79409591  0.42750928  0.37049247    -0.00700
C1593       C  0.77079302  0.43714817  0.37116473    -0.04300
C1594       C  0.75165726  0.42503330  0.36012437     0.02700
C1595       C  0.78230879  0.36938546  0.33727816     0.09500
C1596       C  0.82197858  0.39534975  0.35797712     0.35400
C1597       C  0.72795463  0.43561052  0.35967232     0.38900
C1598       C  0.78500072  0.36816383  0.31234810    -0.04700
C1599       C  0.78414492  0.34597264  0.30068144     0.02500
C1600       C  0.77974122  0.32474205  0.31391019    -0.04300
C1601       C  0.77774183  0.32614187  0.33919231    -0.00500
C1602       C  0.77957007  0.34838836  0.35078377    -0.03100
C1603       C  0.78769858  0.38997820  0.29857318     0.36200
C1604       C  0.77223726  0.30515979  0.35336535     0.39800
C1605       C  0.78746493  0.34551660  0.27495776     0.38900
C1606       C  0.77777079  0.34993541  0.37662636     0.35800
C1607       C  0.73556178  0.38968016  0.33918876     0.36500
C1608       C  0.81375465  0.44011501  0.38173251     0.39800
N1609       N  0.78983285  0.34578477  0.25441624    -0.38300
N1610       N  0.78968683  0.40731285  0.28750509    -0.39900
N1611       N  0.76773218  0.28857162  0.36482830    -0.37600
N1612       N  0.77649273  0.35132698  0.39723029    -0.40000
N1613       N  0.84097349  0.38719036  0.35701306    -0.39800
N1614       N  0.82950802  0.45008906  0.39071038    -0.37400
N1615       N  0.70912528  0.44417223  0.35907215    -0.38500
N1616       N  0.71966716  0.37911973  0.33119795    -0.40100
C1617       C  0.41266288  0.64031212  0.74904366    -0.05100
C1618       C  0.42545401  0.64557773  0.72801901     0.09100
C1619       C  0.41701358  0.66325963  0.71227426    -0.02400
C1620       C  0.39513598  0.67473248  0.71669848    -0.00700
C1621       C  0.38187193  0.66941177  0.73766827    -0.04300
C1622       C  0.39114500  0.65251356  0.75412087     0.02700
C1623       C  0.44736681  0.63193409  0.72141729     0.09500
C1624       C  0.43090144  0.66942157  0.69122298     0.35400
C1625       C  0.37909373  0.64823704  0.77664215     0.38900
C1626       C  0.44609554  0.61492511  0.70291229    -0.04700
C1627       C  0.46709061  0.60448817  0.69387816     0.02500
C1628       C  0.48958923  0.60999979  0.70423787    -0.04300
C1629       C  0.49066388  0.62673856  0.72332945    -0.00500
C1630       C  0.46962567  0.63786544  0.73157775    -0.03100
C1631       C  0.42300259  0.60839575  0.69300253     0.36200
C1632       C  0.51315912  0.63230324  0.73508144     0.39800
C1633       C  0.46539402  0.58880709  0.67326965     0.38900
C1634       C  0.47083322  0.65559205  0.75046442     0.35800
C1635       C  0.42161361  0.62219840  0.76529173     0.36500
C1636       C  0.38613299  0.69115038  0.69877030     0.39800
N1637       N  0.46397860  0.57637154  0.65680156    -0.38300
N1638       N  0.40452674  0.60324276  0.68523338    -0.39900
N1639       N  0.53107266  0.63683478  0.74444980    -0.37600
N1640       N  0.47178508  0.66968242  0.76556527    -0.40000
N1641       N  0.44210222  0.67423571  0.67454581    -0.39800
N1642       N  0.37974390  0.70403155  0.68391379    -0.37400
N1643       N  0.36955870  0.64495136  0.79468200    -0.38500
N1644       N  0.42882903  0.60773020  0.77821596    -0.40100
C1645       C  0.42183505  0.75714910  0.80588995    -0.05100
C1646       C  0.42140505  0.77227295  0.82598540     0.09100
C1647       C  0.39923225  0.78045901  0.83474113    -0.02400
C1648       C  0.37758360  0.77375982  0.82330688    -0.00700
C1649       C  0.37785444  0.75829073  0.80313331    -0.04300
C1650       C  0.40033450  0.74994322  0.79471785     0.02700
C1651       C  0.44450238  0.77885710  0.83819137     0.09500
C1652       C  0.39878905  0.79584298  0.85558921     0.35400
C1653       C  0.40173138  0.73318115  0.77502383     0.38900
C1654       C  0.45812450  0.79846965  0.83007063    -0.04700
C1655       C  0.48074671  0.80346241  0.84036599     0.02500
C1656       C  0.48984590  0.78892545  0.85894205    -0.04300
C1657       C  0.47629333  0.76916591  0.86684798    -0.00500
C1658       C  0.45368578  0.76427429  0.85665675    -0.03100
C1659       C  0.44887176  0.81333461  0.81092906     0.36200
C1660       C  0.48619029  0.75312354  0.88470813     0.39800
C1661       C  0.49462063  0.82357286  0.83189438     0.38900
C1662       C  0.43999257  0.74391590  0.86486832     0.35800
C1663       C  0.44464662  0.74880827  0.79678543     0.36500
C1664       C  0.35519919  0.78349772  0.83203817     0.39800
N1665       N  0.50571688  0.83958956  0.82506484    -0.38300
N1666       N  0.44140164  0.82512669  0.79563118    -0.39900
N1667       N  0.49428849  0.74028744  0.89879462    -0.37600
N1668       N  0.42905907  0.72768101  0.87143504    -0.40000
N1669       N  0.39850691  0.80806904  0.87226509    -0.39800
N1670       N  0.33741446  0.79135322  0.83909197    -0.37400
N1671       N  0.40339886  0.71983570  0.75933758    -0.38500
N1672       N  0.46286062  0.74224934  0.78952957    -0.40100
C1673       C  0.05512539  0.47172827  0.78198460    -0.05100
C1674       C  0.04244060  0.46810397  0.80347492     0.09100
C1675       C  0.05510965  0.46515684  0.82514873    -0.02400
C1676       C  0.08027527  0.46668462  0.82546804    -0.00700
C1677       C  0.09289913  0.47096594  0.80409670    -0.04300
C1678       C  0.08031941  0.47287760  0.78226248     0.02700
C1679       C  0.01569131  0.46712930  0.80319853     0.09500
C1680       C  0.04222706  0.46012502  0.84703442     0.35400
C1681       C  0.09333813  0.47488841  0.75996918     0.38900
C1682       C  0.00390052  0.44634899  0.79540956    -0.04700
C1683       C  0.97872907  0.44583969  0.79373374     0.02500
C1684       C  0.96488288  0.46594310  0.80093593    -0.04300
C1685       C  0.97696661  0.48627279  0.81012639    -0.00500
C1686       C  0.00219859  0.48705902  0.81053733    -0.03100
C1687       C  0.01781427  0.42541842  0.78901453     0.36200
C1688       C  0.96374280  0.50617771  0.82012531     0.39800
C1689       C  0.96747928  0.42466299  0.78386386     0.38900
C1690       C  0.01440839  0.50857547  0.81824677     0.35800
C1691       C  0.04220313  0.47399417  0.75956269     0.36500
C1692       C  0.09321803  0.46371439  0.84778178     0.39800
N1693       N  0.95860128  0.40770622  0.77605305    -0.38300
N1694       N  0.02888655  0.40870143  0.78398968    -0.39900
N1695       N  0.95353308  0.52216374  0.82833082    -0.37600
N1696       N  0.02418790  0.52575146  0.82426726    -0.40000
N1697       N  0.03195921  0.45601524  0.86448573    -0.39800
N1698       N  0.10350851  0.46132898  0.86560731    -0.37400
N1699       N  0.10364802  0.47611082  0.74210300    -0.38500
N1700       N  0.03184451  0.47567901  0.74169106    -0.40100
C1701       C  0.17377718  0.55652134  0.78176256    -0.05100
C1702       C  0.19240413  0.56210025  0.79788939     0.09100
C1703       C  0.19820721  0.54586164  0.81631812    -0.02400
C1704       C  0.18591094  0.52389087  0.81821245    -0.00700
C1705       C  0.16763839  0.51797023  0.80164773    -0.04300
C1706       C  0.16161734  0.53450575  0.78345236     0.02700
C1707       C  0.20708944  0.58423317  0.79409407     0.09500
C1708       C  0.21696706  0.55178519  0.83324582     0.35400
C1709       C  0.14380624  0.52844475  0.76557202     0.38900
C1710       C  0.20115371  0.60585569  0.80551958    -0.04700
C1711       C  0.21416011  0.62693422  0.80049761     0.02500
C1712       C  0.23273600  0.62682614  0.78319413    -0.04300
C1713       C  0.23915604  0.60471956  0.77252381    -0.00500
C1714       C  0.22660638  0.58360066  0.77823978    -0.03100
C1715       C  0.18158486  0.60634044  0.82246312     0.36200
C1716       C  0.25831343  0.60339591  0.75519234     0.39800
C1717       C  0.20901419  0.64842996  0.81401919     0.38900
C1718       C  0.23372605  0.56098706  0.76775696     0.35800
C1719       C  0.16732821  0.57343858  0.76317609     0.36500
C1720       C  0.19190740  0.50752791  0.83743665     0.39800
N1721       N  0.20501426  0.66547955  0.82499637    -0.38300
N1722       N  0.16596096  0.60666977  0.83597810    -0.39900
N1723       N  0.27366152  0.60177829  0.74147173    -0.37600
N1724       N  0.23940549  0.54286006  0.75962680    -0.40000
N1725       N  0.23189428  0.55659152  0.84678286    -0.39800
N1726       N  0.19668978  0.49443094  0.85273756    -0.37400
N1727       N  0.12973532  0.52374549  0.75111947    -0.38500
N1728       N  0.16212835  0.58698891  0.74842053    -0.40100
C1729       C  0.27274954  0.59164660  0.67394356    -0.05100
C1730       C  0.29579302  0.58223061  0.66976420     0.09100
C1731       C  0.31618104  0.59565397  0.67592608    -0.02400
C1732       C  0.31360240  0.61818520  0.68667413    -0.00700
C1733       C  0.29060527  0.62748958  0.69129547    -0.04300
C1734       C  0.27014045  0.61436359  0.68453961     0.02700
C1735       C  0.29887550  0.55869759  0.65762413     0.09500
C1736       C  0.33983235  0.58626740  0.67090502     0.35400
C1737       C  0.24647003  0.62393194  0.68909044     0.38900
C1738       C  0.29694504  0.55731388  0.63257266    -0.04700
C1739       C  0.30149099  0.53561860  0.62065918     0.02500
C1740       C  0.30828080  0.51494398  0.63382473    -0.04300
C1741       C  0.31054302  0.51666601  0.65910830    -0.00500
C1742       C  0.30562112  0.53838217  0.67087821    -0.03100
C1743       C  0.29071977  0.57856100  0.61902262     0.36200
C1744       C  0.31906511  0.49657075  0.67317263     0.39800
C1745       C  0.29898397  0.53495971  0.59482432     0.38900
C1746       C  0.30800439  0.54003925  0.69668844     0.35800
C1747       C  0.25181180  0.57782173  0.66748828     0.36500
C1748       C  0.33467492  0.63218803  0.69216286     0.39800
N1749       N  0.29715882  0.53469867  0.57420004    -0.38300
N1750       N  0.28576712  0.59559994  0.60839467    -0.39900
N1751       N  0.32588106  0.48059527  0.68443354    -0.37600
N1752       N  0.31000631  0.54136759  0.71725126    -0.40000
N1753       N  0.35857225  0.57854251  0.66681070    -0.39800
N1754       N  0.35158075  0.64335497  0.69616716    -0.37400
N1755       N  0.22758999  0.63159339  0.69268259    -0.38500
N1756       N  0.23514921  0.56673796  0.66227640    -0.40100
C1757       C  0.22699821  0.81079728  0.63799866    -0.05100
C1758       C  0.23897940  0.80543956  0.61648325     0.09100
C1759       C  0.25500677  0.78605854  0.61577057    -0.02400
C1760       C  0.25915692  0.77209601  0.63634415    -0.00700
C1761       C  0.24797446  0.77790041  0.65839563    -0.04300
C1762       C  0.23152026  0.79722371  0.65889288     0.02700
C1763       C  0.23453017  0.81967321  0.59415396     0.09500
C1764       C  0.26743299  0.78052258  0.59367078     0.35400
C1765       C  0.21856250  0.80277602  0.68064200     0.38900
C1766       C  0.25186670  0.83604059  0.58598295    -0.04700
C1767       C  0.24896162  0.84746680  0.56365326     0.02500
C1768       C  0.22891893  0.84227027  0.54910241    -0.04300
C1769       C  0.21108926  0.82669073  0.55773319    -0.00500
C1770       C  0.21388496  0.81543944  0.58018977    -0.03100
C1771       C  0.27289437  0.84081896  0.60045806     0.36200
C1772       C  0.18944712  0.82291719  0.54391771     0.39800
C1773       C  0.26677777  0.86439239  0.55550964     0.38900
C1774       C  0.19559409  0.79936796  0.58895327     0.35800
C1775       C  0.20996637  0.83032207  0.63856987     0.36500
C1776       C  0.27504292  0.75176592  0.63424400     0.39800
N1777       N  0.28086212  0.87803031  0.54902637    -0.38300
N1778       N  0.28971524  0.84452104  0.61197020    -0.39900
N1779       N  0.17204565  0.82002789  0.53305702    -0.37600
N1780       N  0.18099464  0.78667411  0.59617162    -0.40000
N1781       N  0.27749011  0.77621857  0.57613808    -0.39800
N1782       N  0.28735577  0.73540348  0.63153864    -0.37400
N1783       N  0.20821941  0.80721178  0.69798233    -0.38500
N1784       N  0.19624849  0.84579953  0.63893937    -0.40100
C1785       C  0.50010292  0.64960939  0.48432317    -0.05100
C1786       C  0.51818921  0.66170601  0.49702151     0.09100
C1787       C  0.51235879  0.68181725  0.51099604    -0.02400
C1788       C  0.48884209  0.69077534  0.51107821    -0.00700
C1789       C  0.47082017  0.67948634  0.49732264    -0.04300
C1790       C  0.47648832  0.65857884  0.48425688     0.02700
C1791       C  0.54394766  0.65597892  0.49303750     0.09500
C1792       C  0.53087764  0.69373143  0.52477473     0.35400
C1793       C  0.45806837  0.64615174  0.47087455     0.38900
C1794       C  0.55574084  0.66680810  0.47367363    -0.04700
C1795       C  0.58089165  0.66730038  0.47288526     0.02500
C1796       C  0.59456258  0.65650422  0.49147170    -0.04300
C1797       C  0.58248277  0.64377714  0.50974647    -0.00500
C1798       C  0.55724878  0.64347257  0.51041338    -0.03100
C1799       C  0.54182899  0.67872235  0.45519830     0.36200
C1800       C  0.59588323  0.63142322  0.52825967     0.39800
C1801       C  0.59226099  0.68069229  0.45381913     0.38900
C1802       C  0.54487009  0.63089097  0.52933864     0.35800
C1803       C  0.50590746  0.62796144  0.47137288     0.36500
C1804       C  0.48364715  0.71244102  0.52432397     0.39800
N1805       N  0.60116372  0.69144219  0.43858153    -0.38300
N1806       N  0.53065671  0.68814632  0.44051046    -0.39900
N1807       N  0.60656758  0.62173984  0.54314418    -0.37600
N1808       N  0.53500675  0.62071862  0.54436768    -0.40000
N1809       N  0.54570409  0.70306467  0.53579893    -0.39800
N1810       N  0.47955247  0.72973404  0.53486959    -0.37400
N1811       N  0.44338563  0.63629820  0.46011448    -0.38500
N1812       N  0.51050565  0.61055423  0.46123306    -0.40100
C1813       C  0.39849936  0.70418433  0.58598127    -0.05100
C1814       C  0.37869452  0.71964731  0.58678394     0.09100
C1815       C  0.37110015  0.73141136  0.56586210    -0.02400
C1816       C  0.38289833  0.72726240  0.54396961    -0.00700
C1817       C  0.40158997  0.71003340  0.54250918    -0.04300
C1818       C  0.40916523  0.69843625  0.56393022     0.02700
C1819       C  0.36425827  0.72124652  0.60916178     0.09500
C1820       C  0.35076686  0.74750291  0.56686142     0.35400
C1821       C  0.42675691  0.67935683  0.56356201     0.38900
C1822       C  0.36569125  0.74142155  0.62413031    -0.04700
C1823       C  0.35230202  0.74232579  0.64545015     0.02500
C1824       C  0.33805924  0.72260815  0.65238466    -0.04300
C1825       C  0.33653173  0.70248780  0.63708799    -0.00500
C1826       C  0.34931024  0.70202365  0.61546014    -0.03100
C1827       C  0.38113435  0.76114937  0.61767097     0.36200
C1828       C  0.32226835  0.68188451  0.64358966     0.39800
C1829       C  0.35267219  0.76391667  0.65976264     0.38900
C1830       C  0.34717854  0.68162988  0.59956423     0.35800
C1831       C  0.40763340  0.69388666  0.60803497     0.36500
C1832       C  0.37562468  0.74104109  0.52320332     0.39800
N1833       N  0.35298000  0.78123564  0.67102562    -0.38300
N1834       N  0.39344762  0.77691415  0.61256068    -0.39900
N1835       N  0.31084964  0.66536801  0.64836858    -0.37600
N1836       N  0.34554883  0.66543274  0.58682771    -0.40000
N1837       N  0.33455770  0.76032823  0.56775645    -0.39800
N1838       N  0.36970150  0.75209807  0.50672315    -0.37400
N1839       N  0.44059153  0.66396830  0.56344244    -0.38500
N1840       N  0.41498970  0.68593034  0.62568585    -0.40100
C1841       C  0.40513579  0.31121298  0.75738219    -0.05100
C1842       C  0.42097319  0.30512602  0.73885411     0.09100
C1843       C  0.41544610  0.28621305  0.72324471    -0.02400
C1844       C  0.39389346  0.27357182  0.72581694    -0.00700
C1845       C  0.37781370  0.27941685  0.74456921    -0.04300
C1846       C  0.38402055  0.29794264  0.76077484     0.02700
C1847       C  0.44345653  0.31886443  0.73519633     0.09500
C1848       C  0.43191189  0.28006529  0.70416229     0.35400
C1849       C  0.36942487  0.30279471  0.78164167     0.38900
C1850       C  0.46398827  0.31355949  0.74880528    -0.04700
C1851       C  0.48591588  0.32473557  0.74350102     0.02500
C1852       C  0.48761475  0.34085373  0.72392173    -0.04300
C1853       C  0.46638978  0.34706361  0.71126758    -0.00500
C1854       C  0.44449809  0.33611781  0.71698992    -0.03100
C1855       C  0.46253405  0.29627653  0.76809072     0.36200
C1856       C  0.46654115  0.36441711  0.69205286     0.39800
C1857       C  0.50633073  0.32013514  0.75893082     0.38900
C1858       C  0.42290536  0.34226038  0.70382377     0.35800
C1859       C  0.41033807  0.33158169  0.77253815     0.36500
C1860       C  0.38852487  0.25476783  0.70878469     0.39800
N1861       N  0.52246685  0.31641888  0.77140619    -0.38300
N1862       N  0.46130182  0.28251504  0.78347418    -0.39900
N1863       N  0.46575226  0.37841023  0.67685982    -0.37600
N1864       N  0.40568493  0.34710925  0.69335927    -0.40000
N1865       N  0.44503012  0.27528915  0.68892819    -0.39800
N1866       N  0.38474482  0.23967841  0.69516723    -0.37400
N1867       N  0.35798778  0.30663473  0.79842400    -0.38500
N1868       N  0.41439512  0.34800604  0.78441413    -0.40100
C1869       C  0.39708151  0.16230453  0.83429930    -0.05100
C1870       C  0.41941566  0.17015369  0.82582385     0.09100
C1871       C  0.42038275  0.18566720  0.80603049    -0.02400
C1872       C  0.39911950  0.19342239  0.79474216    -0.00700
C1873       C  0.37643509  0.18617602  0.80359469    -0.04300
C1874       C  0.37570248  0.17065924  0.82369890     0.02700
C1875       C  0.44178608  0.16456956  0.83955455     0.09500
C1876       C  0.44338749  0.19449654  0.79796496     0.35400
C1877       C  0.35308162  0.16349672  0.83407522     0.38900
C1878       C  0.45804285  0.14710960  0.83142735    -0.04700
C1879       C  0.48009985  0.14369862  0.84339228     0.02500
C1880       C  0.48562093  0.15711615  0.86415345    -0.04300
C1881       C  0.46846737  0.17350028  0.87308551    -0.00500
C1882       C  0.44702458  0.17764162  0.86044626    -0.03100
C1883       C  0.45191873  0.13254269  0.81087816     0.36200
C1884       C  0.47285432  0.18661947  0.89503796     0.39800
C1885       C  0.49678717  0.12589499  0.83467454     0.38900
C1886       C  0.43050272  0.19593479  0.86853762     0.35800
C1887       C  0.39616571  0.14593190  0.85438573     0.36500
C1888       C  0.40094252  0.20994068  0.77484391     0.39800
N1889       N  0.51014170  0.11172120  0.82772908    -0.38300
N1890       N  0.44696964  0.12077207  0.79459883    -0.39900
N1891       N  0.47607520  0.19688258  0.91271511    -0.37600
N1892       N  0.41728825  0.21056064  0.87477220    -0.40000
N1893       N  0.46175920  0.20158515  0.79170995    -0.39800
N1894       N  0.40280943  0.22304819  0.75896848    -0.37400
N1895       N  0.33515001  0.15803274  0.84276109    -0.38500
N1896       N  0.39542891  0.13285663  0.87038751    -0.40100
C1897       C  0.28843910  0.33874051  0.65578055    -0.05100
C1898       C  0.28823751  0.36088716  0.66767169     0.09100
C1899       C  0.28314010  0.36194185  0.69230443    -0.02400
C1900       C  0.27927585  0.34081058  0.70525295    -0.00700
C1901       C  0.28188156  0.31833670  0.69396839    -0.04300
C1902       C  0.28549300  0.31746559  0.66882988     0.02700
C1903       C  0.29402662  0.38318762  0.65445871     0.09500
C1904       C  0.28216567  0.38483824  0.70443949     0.35400
C1905       C  0.28653883  0.29490168  0.65610929     0.38900
C1906       C  0.27591044  0.40003870  0.64951681    -0.04700
C1907       C  0.28178580  0.42199297  0.63886993     0.02500
C1908       C  0.30573331  0.42694532  0.63277117    -0.04300
C1909       C  0.32376770  0.40983878  0.63715187    -0.00500
C1910       C  0.31790787  0.38793277  0.64790919    -0.03100
C1911       C  0.25122123  0.39463408  0.65525975     0.36200
C1912       C  0.34848638  0.41512625  0.63140883     0.39800
C1913       C  0.26312570  0.43929936  0.63378369     0.38900
C1914       C  0.33643086  0.37026164  0.65229442     0.35800
C1915       C  0.29197183  0.33789541  0.63008031     0.36500
C1916       C  0.27145975  0.34247963  0.72989033     0.39800
N1917       N  0.24827315  0.45314101  0.62974594    -0.38300
N1918       N  0.23156132  0.39025746  0.65990078    -0.39900
N1919       N  0.36821917  0.41937062  0.62694943    -0.37600
N1920       N  0.35108528  0.35600909  0.65555860    -0.40000
N1921       N  0.28128569  0.40308174  0.71409969    -0.39800
N1922       N  0.26494581  0.34422107  0.74941470    -0.37400
N1923       N  0.28715160  0.27706128  0.64569477    -0.38500
N1924       N  0.29480538  0.33718452  0.60960164    -0.40100
C1925       C  0.19190465  0.34175872  0.79000522    -0.05100
C1926       C  0.20467109  0.36119063  0.79948649     0.09100
C1927       C  0.22916440  0.35881369  0.80477514    -0.02400
C1928       C  0.24099171  0.33695398  0.80073956    -0.00700
C1929       C  0.22860349  0.31753265  0.79002654    -0.04300
C1930       C  0.20383414  0.32025441  0.78465044     0.02700
C1931       C  0.19283026  0.38494514  0.80169326     0.09500
C1932       C  0.24240323  0.37935896  0.81340814     0.35400
C1933       C  0.19061053  0.30180044  0.77209184     0.38900
C1934       C  0.17974265  0.39086417  0.82235763    -0.04700
C1935       C  0.16818745  0.41320068  0.82393761     0.02500
C1936       C  0.17008167  0.42982645  0.80500999    -0.04300
C1937       C  0.18367041  0.42400266  0.78457251    -0.00500
C1938       C  0.19475240  0.40149939  0.78280952    -0.03100
C1939       C  0.17815280  0.37390004  0.84189220     0.36200
C1940       C  0.18559568  0.44082189  0.76495221     0.39800
C1941       C  0.15470496  0.41917208  0.84521797     0.38900
C1942       C  0.20778195  0.39504768  0.76134445     0.35800
C1943       C  0.16656408  0.34430581  0.78481988     0.36500
C1944       C  0.26601257  0.33494574  0.80741000     0.39800
N1945       N  0.14406269  0.42373774  0.86232946    -0.38300
N1946       N  0.17692727  0.36036115  0.85747439    -0.39900
N1947       N  0.18720511  0.45424289  0.74930939    -0.37600
N1948       N  0.21813699  0.38967064  0.74428539    -0.40000
N1949       N  0.25289864  0.39591296  0.81994887    -0.39800
N1950       N  0.28599021  0.33370915  0.81274001    -0.37400
N1951       N  0.17973802  0.28740470  0.76198413    -0.38500
N1952       N  0.14636008  0.34628248  0.78073121    -0.40100
C1953       C  0.22537758  0.95495422  0.48334608    -0.05100
C1954       C  0.21549823  0.96663376  0.50329231     0.09100
C1955       C  0.20626641  0.95320306  0.52239833    -0.02400
C1956       C  0.20681563  0.92807897  0.52157774    -0.00700
C1957       C  0.21836640  0.91608613  0.50239716    -0.04300
C1958       C  0.22744017  0.92986466  0.48308779     0.02700
C1959       C  0.21563166  0.99322167  0.50448493     0.09500
C1960       C  0.19649378  0.96533135  0.54312744     0.35400
C1961       C  0.23968564  0.91871321  0.46316767     0.38900
C1962       C  0.19835206  0.00662354  0.49183819    -0.04700
C1963       C  0.19912981  0.03174499  0.49232087     0.02500
C1964       C  0.21741906  0.04349631  0.50517092    -0.04300
C1965       C  0.23455563  0.03005795  0.51802433    -0.00500
C1966       C  0.23359705  0.00497574  0.51773649    -0.03100
C1967       C  0.17999956  0.99451226  0.47807923     0.36200
C1968       C  0.25377326  0.04199872  0.53077184     0.39800
C1969       C  0.18078167  0.04549894  0.48010425     0.38900
C1970       C  0.25141882  0.99119989  0.53067045     0.35800
C1971       C  0.23372977  0.96894802  0.46317373     0.36500
C1972       C  0.19456642  0.91480448  0.54015675     0.39800
N1973       N  0.16612518  0.05653023  0.47047054    -0.38300
N1974       N  0.16547368  0.98484501  0.46694720    -0.39900
N1975       N  0.26906504  0.05162151  0.54087149    -0.37600
N1976       N  0.26561806  0.98023563  0.54103132    -0.40000
N1977       N  0.18897966  0.97499107  0.55978502    -0.39800
N1978       N  0.18464695  0.90426550  0.55489884    -0.37400
N1979       N  0.24948531  0.91018236  0.44709308    -0.38500
N1980       N  0.24008978  0.98021842  0.44706312    -0.40100
C1981       C  0.24939655  0.13890938  0.63448427    -0.05100
C1982       C  0.23371108  0.15032263  0.61838486     0.09100
C1983       C  0.22186707  0.17144998  0.62504462    -0.02400
C1984       C  0.22595594  0.18145636  0.64775562    -0.00700
C1985       C  0.24191146  0.17020463  0.66401262    -0.04300
C1986       C  0.25334641  0.14864746  0.65734438     0.02700
C1987       C  0.22994746  0.14015909  0.59413120     0.09500
C1988       C  0.20604463  0.18325225  0.60814026     0.35400
C1989       C  0.27030142  0.13705040  0.67323704     0.38900
C1990       C  0.21102384  0.12412768  0.59010034    -0.04700
C1991       C  0.20806833  0.11358896  0.56746567     0.02500
C1992       C  0.22416713  0.11900478  0.54874481    -0.04300
C1993       C  0.24287174  0.13554862  0.55277396    -0.00500
C1994       C  0.24567920  0.14612504  0.57544975    -0.03100
C1995       C  0.19481414  0.11826862  0.60944117     0.36200
C1996       C  0.26003350  0.14082041  0.53410629     0.39800
C1997       C  0.18831191  0.09727789  0.56350397     0.38900
C1998       C  0.26506986  0.16277278  0.57984999     0.35800
C1999       C  0.26225507  0.11765037  0.62705209     0.36500
C2000       C  0.21392829  0.20355032  0.65410389     0.39800
N2001       N  0.17261355  0.08419471  0.56039991    -0.38300
N2002       N  0.18193573  0.11364200  0.62491435    -0.39900
N2003       N  0.27379038  0.14505735  0.51928808    -0.37600
N2004       N  0.28050651  0.17602495  0.58351575    -0.40000
N2005       N  0.19351607  0.19266431  0.59458148    -0.39800
N2006       N  0.20445850  0.22128830  0.65890165    -0.37400
N2007       N  0.28386095  0.12742659  0.68558694    -0.38500
N2008       N  0.27267978  0.10085165  0.62102196    -0.40100
C2009       C  0.24898747  0.12584338  0.42437875    -0.05100
C2010       C  0.23215447  0.14327153  0.41741845     0.09100
C2011       C  0.21228099  0.14826308  0.43202640    -0.02400
C2012       C  0.20926471  0.13588452  0.45370307    -0.00700
C2013       C  0.22605483  0.11837892  0.46069087    -0.04300
C2014       C  0.24579272  0.11316961  0.44585923     0.02700
C2015       C  0.23572501  0.15688733  0.39489262     0.09500
C2016       C  0.19510523  0.16630457  0.42475114     0.35400
C2017       C  0.26309972  0.09515688  0.45293405     0.38900
C2018       C  0.22675522  0.14798964  0.37312787    -0.04700
C2019       C  0.23067508  0.16062093  0.35172142     0.02500
C2020       C  0.24428149  0.18202143  0.35191044    -0.04300
C2021       C  0.25179420  0.19162861  0.37425840    -0.00500
C2022       C  0.24783743  0.17883842  0.39552295    -0.03100
C2023       C  0.21357283  0.12569557  0.37284702     0.36200
C2024       C  0.26356776  0.21465241  0.37585710     0.39800
C2025       C  0.21959750  0.15202889  0.32984032     0.38900
C2026       C  0.25658161  0.18806643  0.41818149     0.35800
C2027       C  0.26985819  0.12143317  0.40966026     0.36500
C2028       C  0.18854500  0.14067414  0.46848701     0.39800
N2029       N  0.21055348  0.14513339  0.31252970    -0.38300
N2030       N  0.20311021  0.10789206  0.37268302    -0.39900
N2031       N  0.27270042  0.23311971  0.37736509    -0.37600
N2032       N  0.26359143  0.19538791  0.43623295    -0.40000
N2033       N  0.18149851  0.18075372  0.41886621    -0.39800
N2034       N  0.17198219  0.14441678  0.48026206    -0.37400
N2035       N  0.27683506  0.08071296  0.45853342    -0.38500
N2036       N  0.28655510  0.11809599  0.39794814    -0.40100
C2037       C  0.49763344  0.30982515  0.53434197    -0.05100
C2038       C  0.51217738  0.30817239  0.51396412     0.09100
C2039       C  0.50159884  0.30750820  0.49117076    -0.02400
C2040       C  0.47677520  0.30397805  0.48873452    -0.00700
C2041       C  0.46188157  0.30306396  0.50940770    -0.04300
C2042       C  0.47250254  0.30841752  0.53200850     0.02700
C2043       C  0.53819288  0.30251023  0.51605822     0.09500
C2044       C  0.51673642  0.30920130  0.47017153     0.35400
C2045       C  0.45788757  0.31266425  0.55298003     0.38900
C2046       C  0.54536785  0.27843363  0.51398726    -0.04700
C2047       C  0.56966623  0.27264778  0.51129694     0.02500
C2048       C  0.58707690  0.29079706  0.51171611    -0.04300
C2049       C  0.58009729  0.31479666  0.51506721    -0.00500
C2050       C  0.55558371  0.32070716  0.51684565    -0.03100
C2051       C  0.52754376  0.25961918  0.51414626     0.36200
C2052       C  0.59810492  0.33333911  0.51631442     0.39800
C2053       C  0.57672401  0.24799534  0.50758548     0.38900
C2054       C  0.54816772  0.34540718  0.51894858     0.35800
C2055       C  0.50863571  0.31209840  0.55775455     0.36500
C2056       C  0.46749538  0.29992121  0.46482847     0.39800
N2057       N  0.58227797  0.22835906  0.50436014    -0.38300
N2058       N  0.51323622  0.24472312  0.51436488    -0.39900
N2059       N  0.61250963  0.34811332  0.51735046    -0.37600
N2060       N  0.54219848  0.36512310  0.52059912    -0.40000
N2061       N  0.52894781  0.31080917  0.45358576    -0.39800
N2062       N  0.46056631  0.29655135  0.44559719    -0.37400
N2063       N  0.44631248  0.31625810  0.56972514    -0.38500
N2064       N  0.51740831  0.31389612  0.57644035    -0.40100
C2065       C  0.35643806  0.26102257  0.57396501    -0.05100
C2066       C  0.37053801  0.24956923  0.59148464     0.09100
C2067       C  0.39507991  0.24585995  0.58736314    -0.02400
C2068       C  0.40563291  0.25386341  0.56590062    -0.00700
C2069       C  0.39165167  0.26586382  0.54833653    -0.04300
C2070       C  0.36681467  0.26893370  0.55240657     0.02700
C2071       C  0.35969371  0.24326634  0.61506987     0.09500
C2072       C  0.40959154  0.23441440  0.60562306     0.35400
C2073       C  0.35185105  0.28106137  0.53499700     0.38900
C2074       C  0.35072118  0.22010229  0.61936796    -0.04700
C2075       C  0.33802509  0.21525137  0.64061251     0.02500
C2076       C  0.33507260  0.23333172  0.65790275    -0.04300
C2077       C  0.34497767  0.25615955  0.65405795    -0.00500
C2078       C  0.35712452  0.26114289  0.63264048    -0.03100
C2079       C  0.35464285  0.20132169  0.60199042     0.36200
C2080       C  0.34267925  0.27455879  0.67219131     0.39800
C2081       C  0.32737761  0.19196159  0.64441061     0.38900
C2082       C  0.36690498  0.28475172  0.62852281     0.35800
C2083       C  0.33132480  0.26556075  0.57869596     0.36500
C2084       C  0.43086425  0.24930889  0.56193287     0.39800
N2085       N  0.31867568  0.17347493  0.64741368    -0.38300
N2086       N  0.35801215  0.18622407  0.58828273    -0.39900
N2087       N  0.34097578  0.28921076  0.68667354    -0.37600
N2088       N  0.37472858  0.30355316  0.62513013    -0.40000
N2089       N  0.42113353  0.22535400  0.62025604    -0.39800
N2090       N  0.45100982  0.24572936  0.55886123    -0.37400
N2091       N  0.33960029  0.29057906  0.52126425    -0.38500
N2092       N  0.31139408  0.26933727  0.58273406    -0.40100
C2093       C  0.39415000  0.25313529  0.42391718    -0.05100
C2094       C  0.37301121  0.26435831  0.41589632     0.09100
C2095       C  0.36246217  0.28252717  0.42985563    -0.02400
C2096       C  0.37242236  0.28867865  0.45226379    -0.00700
C2097       C  0.39308847  0.27682244  0.46066157    -0.04300
C2098       C  0.40423650  0.25943296  0.44616238     0.02700
C2099       C  0.36190027  0.25708272  0.39264519     0.09500
C2100       C  0.34145700  0.29496038  0.42099870     0.35400
C2101       C  0.42599627  0.24779703  0.45428073     0.38900
C2102       C  0.34745945  0.23644083  0.39136327    -0.04700
C2103       C  0.33640809  0.23003772  0.36959929     0.02500
C2104       C  0.33917466  0.24457769  0.34927580    -0.04300
C2105       C  0.35519274  0.26400618  0.35001565    -0.00500
C2106       C  0.36625183  0.27049441  0.37175386    -0.03100
C2107       C  0.34381361  0.22190595  0.41246956     0.36200
C2108       C  0.36097200  0.27673459  0.32827328     0.39800
C2109       C  0.32340990  0.20775012  0.36756751     0.38900
C2110       C  0.38197407  0.29104136  0.37276178     0.35800
C2111       C  0.40550431  0.23509530  0.40920590     0.36500
C2112       C  0.36186005  0.30769080  0.46629860     0.39800
N2113       N  0.31342880  0.18977688  0.36558279    -0.38300
N2114       N  0.34086523  0.21023051  0.42927040    -0.39900
N2115       N  0.36620815  0.28648755  0.31085107    -0.37600
N2116       N  0.39445748  0.30746680  0.37375104    -0.40000
N2117       N  0.32480762  0.30493269  0.41374894    -0.39800
N2118       N  0.35345600  0.32303169  0.47730315    -0.37400
N2119       N  0.44344044  0.23869870  0.46076569    -0.38500
N2120       N  0.41452653  0.22069170  0.39745193    -0.40100
C2121       C  0.44680321  0.62194282  0.25324579    -0.05100
C2122       C  0.43353469  0.63149710  0.27240425     0.09100
C2123       C  0.44293123  0.63083273  0.29584691    -0.02400
C2124       C  0.46592415  0.62142287  0.29995087    -0.00700
C2125       C  0.47887892  0.61132530  0.28088768    -0.04300
C2126       C  0.46902462  0.61096153  0.25765625     0.02700
C2127       C  0.41100252  0.64484410  0.26749147     0.09500
C2128       C  0.42923781  0.64059439  0.31554524     0.35400
C2129       C  0.48153567  0.59898138  0.23840450     0.38900
C2130       C  0.38901137  0.63285044  0.26551327    -0.04700
C2131       C  0.36783758  0.64577948  0.26073652     0.02500
C2132       C  0.36852009  0.67107687  0.25812834    -0.04300
C2133       C  0.39102897  0.68286706  0.26012669    -0.00500
C2134       C  0.41200138  0.66972799  0.26468136    -0.03100
C2135       C  0.38816899  0.60716472  0.26882130     0.36200
C2136       C  0.39322299  0.70853219  0.25723808     0.39800
C2137       C  0.34546582  0.63274895  0.25929780     0.38900
C2138       C  0.43491340  0.68180790  0.26654963     0.35800
C2139       C  0.43819961  0.62466630  0.22889922     0.36500
C2140       C  0.47672536  0.62306004  0.32351635     0.39800
N2141       N  0.32778232  0.62211503  0.25802129    -0.38300
N2142       N  0.38738201  0.58669816  0.27150687    -0.39900
N2143       N  0.39528600  0.72896918  0.25504322    -0.37600
N2144       N  0.45325473  0.69121879  0.26811173    -0.40000
N2145       N  0.41828421  0.64836258  0.33125176    -0.39800
N2146       N  0.48556017  0.62465374  0.34218929    -0.37400
N2147       N  0.49123954  0.58909637  0.22306748    -0.38500
N2148       N  0.43152168  0.62728596  0.20946447    -0.40100
C2149       C  0.38884288  0.78731490  0.16659056    -0.05100
C2150       C  0.40800783  0.77076504  0.16726061     0.09100
C2151       C  0.40485627  0.74890195  0.17955337    -0.02400
C2152       C  0.38294850  0.74371046  0.19086079    -0.00700
C2153       C  0.36474336  0.76114211  0.19211866    -0.04300
C2154       C  0.36749240  0.78272567  0.17934024     0.02700
C2155       C  0.43125143  0.77575897  0.15450788     0.09500
C2156       C  0.42417364  0.73160478  0.18057421     0.35400
C2157       C  0.34832224  0.80020249  0.17931722     0.38900
C2158       C  0.44695200  0.79381285  0.16272282    -0.04700
C2159       C  0.46948356  0.79717608  0.15171058     0.02500
C2160       C  0.47702370  0.78183627  0.13313679    -0.04300
C2161       C  0.46128410  0.76390877  0.12487436    -0.00500
C2162       C  0.43822816  0.76152430  0.13483335    -0.03100
C2163       C  0.43994421  0.80893870  0.18255346     0.36200
C2164       C  0.46921953  0.74709970  0.10683748     0.39800
C2165       C  0.48457070  0.81689002  0.15903098     0.38900
C2166       C  0.42154122  0.74446877  0.12469155     0.35800
C2167       C  0.39092454  0.80890428  0.15247233     0.36500
C2168       C  0.37825584  0.71961395  0.19907108     0.39800
N2169       N  0.49636623  0.83285814  0.16477143    -0.38300
N2170       N  0.43420675  0.82111769  0.19824138    -0.39900
N2171       N  0.47563779  0.73354145  0.09261908    -0.37600
N2172       N  0.40816590  0.73094590  0.11657583    -0.40000
N2173       N  0.43955361  0.71778029  0.18133773    -0.39800
N2174       N  0.37431720  0.70016842  0.20479105    -0.37400
N2175       N  0.33293722  0.81404330  0.17937496    -0.38500
N2176       N  0.39254982  0.82614820  0.14120321    -0.40100
C2177       C  0.35923402  0.69849317  0.37029775    -0.05100
C2178       C  0.35850735  0.71645322  0.38796501     0.09100
C2179       C  0.34530503  0.73756818  0.38377860    -0.02400
C2180       C  0.33299517  0.74073139  0.36192484    -0.00700
C2181       C  0.33371470  0.72269872  0.34432555    -0.04300
C2182       C  0.34705269  0.70169830  0.34843550     0.02700
C2183       C  0.37192460  0.71307911  0.41090953     0.09500
C2184       C  0.34418736  0.75586520  0.40207655     0.35400
C2185       C  0.34799855  0.68325740  0.33024265     0.38900
C2186       C  0.39617502  0.71973315  0.41249765    -0.04700
C2187       C  0.40905775  0.71613296  0.43395425     0.02500
C2188       C  0.39782980  0.70539235  0.45393417    -0.04300
C2189       C  0.37354001  0.69841977  0.45207451    -0.00500
C2190       C  0.36068365  0.70230993  0.43066579    -0.03100
C2191       C  0.40794406  0.72991071  0.39178636     0.36200
C2192       C  0.36192412  0.68632221  0.47181405     0.39800
C2193       C  0.43368459  0.72410765  0.43550427     0.38900
C2194       C  0.33600191  0.69462444  0.42865175     0.35800
C2195       C  0.37218662  0.67651582  0.37488667     0.36500
C2196       C  0.31979036  0.76260077  0.35739236     0.39800
N2197       N  0.45332770  0.73048849  0.43665157    -0.38300
N2198       N  0.41728343  0.73784053  0.37515063    -0.39900
N2199       N  0.35270516  0.67665467  0.48757393    -0.37600
N2200       N  0.31635356  0.68839360  0.42694647    -0.40000
N2201       N  0.34319524  0.77044197  0.41670170    -0.39800
N2202       N  0.30932688  0.78006239  0.35368834    -0.37400
N2203       N  0.34868256  0.66850532  0.31578128    -0.38500
N2204       N  0.38242620  0.65895741  0.37871231    -0.40100
C2205       C  0.21045305  0.81316389  0.42955739    -0.05100
C2206       C  0.23168704  0.81517289  0.41611978     0.09100
C2207       C  0.25073973  0.82914037  0.42496081    -0.02400
C2208       C  0.24871536  0.84074353  0.44726353    -0.00700
C2209       C  0.22735658  0.83900152  0.46057323    -0.04300
C2210       C  0.20810308  0.82548269  0.45147870     0.02700
C2211       C  0.23420385  0.80250169  0.39263455     0.09500
C2212       C  0.27231872  0.83175085  0.41087563     0.35400
C2213       C  0.18553462  0.82517232  0.46414481     0.38900
C2214       C  0.22647223  0.81344653  0.37127364    -0.04700
C2215       C  0.22994106  0.80204918  0.34898333     0.02500
C2216       C  0.24203907  0.77976636  0.34769139    -0.04300
C2217       C  0.24918958  0.76857749  0.36957970    -0.00500
C2218       C  0.24510094  0.77989115  0.39176095    -0.03100
C2219       C  0.21516710  0.83672848  0.37230381     0.36200
C2220       C  0.26129662  0.74561594  0.36985971     0.39800
C2221       C  0.22033268  0.81315896  0.32756775     0.38900
C2222       C  0.25240401  0.76836049  0.41389408     0.35800
C2223       C  0.19105799  0.79841861  0.42075863     0.36500
C2224       C  0.26866208  0.85445142  0.45656724     0.39800
N2225       N  0.21261745  0.82199947  0.31049160    -0.38300
N2226       N  0.20622617  0.85534214  0.37320590    -0.39900
N2227       N  0.27083244  0.72727206  0.37048745    -0.37600
N2228       N  0.25818655  0.75913804  0.43151407    -0.40000
N2229       N  0.28941705  0.83386300  0.39947267    -0.39800
N2230       N  0.28458385  0.86536573  0.46400646    -0.37400
N2231       N  0.16742697  0.82524505  0.47409594    -0.38500
N2232       N  0.17565068  0.78653338  0.41375362    -0.40100
C2233       C  0.99681610  0.48834971  0.16567589    -0.05100
C2234       C  0.01080171  0.47596878  0.18258732     0.09100
C2235       C  0.99972539  0.46195710  0.20032283    -0.02400
C2236       C  0.97461472  0.46063881  0.20143824    -0.00700
C2237       C  0.96047265  0.47350783  0.18483984    -0.04300
C2238       C  0.97169607  0.48714981  0.16677481     0.02700
C2239       C  0.03724329  0.47893633  0.18305180     0.09500
C2240       C  0.01430383  0.44958214  0.21793560     0.35400
C2241       C  0.95742972  0.49982593  0.14914665     0.38900
C2242       C  0.04743412  0.49625853  0.19818259    -0.04700
C2243       C  0.07234897  0.49696791  0.20161514     0.02500
C2244       C  0.08726854  0.48039082  0.18967467    -0.04300
C2245       C  0.07701233  0.46394300  0.17336297    -0.00500
C2246       C  0.05202994  0.46334408  0.17000151    -0.03100
C2247       C  0.03207396  0.51305532  0.21059229     0.36200
C2248       C  0.09206563  0.44774017  0.15985124     0.39800
C2249       C  0.08232151  0.51398471  0.21846102     0.38900
C2250       C  0.04142422  0.44668154  0.15319940     0.35800
C2251       C  0.00834106  0.50273998  0.14750635     0.36500
C2252       C  0.96346722  0.44700584  0.22043230     0.39800
N2253       N  0.09022916  0.52758219  0.23189469    -0.38300
N2254       N  0.01971896  0.52643742  0.22035982    -0.39900
N2255       N  0.10401148  0.43474673  0.14909196    -0.37600
N2256       N  0.03290956  0.43355956  0.13966133    -0.40000
N2257       N  0.02607297  0.43989649  0.23197483    -0.39800
N2258       N  0.95469758  0.43611615  0.23564150    -0.37400
N2259       N  0.94600214  0.50996592  0.13514918    -0.38500
N2260       N  0.01755471  0.51423941  0.13303396    -0.40100
C2261       C  0.17147358  0.56260924  0.18568774    -0.05100
C2262       C  0.18559245  0.56822940  0.20582412     0.09100
C2263       C  0.18901302  0.55104021  0.22397716    -0.02400
C2264       C  0.17750113  0.52866280  0.22249771    -0.00700
C2265       C  0.16309491  0.52307213  0.20241307    -0.04300
C2266       C  0.16062384  0.53999308  0.18375746     0.02700
C2267       C  0.19658131  0.59248233  0.20808236     0.09500
C2268       C  0.20428632  0.55652228  0.24426013     0.35400
C2269       C  0.14747390  0.53393095  0.16218858     0.38900
C2270       C  0.18355432  0.61128734  0.21853895    -0.04700
C2271       C  0.19428645  0.63384139  0.22198778     0.02500
C2272       C  0.21824127  0.63794211  0.21451025    -0.04300
C2273       C  0.23028199  0.61949902  0.20186334    -0.00500
C2274       C  0.21977893  0.59672564  0.19940376    -0.03100
C2275       C  0.15904077  0.60725763  0.22596091     0.36200
C2276       C  0.25316738  0.62397585  0.19057126     0.39800
C2277       C  0.18047487  0.65244290  0.23361104     0.38900
C2278       C  0.23292938  0.57743602  0.18815630     0.35800
C2279       C  0.16797907  0.58026890  0.16702830     0.36500
C2280       C  0.17966385  0.51190000  0.24216946     0.39800
N2281       N  0.16921619  0.66721956  0.24268309    -0.38300
N2282       N  0.13945300  0.60404731  0.23172367    -0.39900
N2283       N  0.27131111  0.62744845  0.18131834    -0.37600
N2284       N  0.24337588  0.56193846  0.17933358    -0.40000
N2285       N  0.21660758  0.56087031  0.26034235    -0.39800
N2286       N  0.18130937  0.49856955  0.25790730    -0.37400
N2287       N  0.13709562  0.52899768  0.14495093    -0.38500
N2288       N  0.16512715  0.59443146  0.15222207    -0.40100
C2289       C  0.19200849  0.40684745  0.19718091    -0.05100
C2290       C  0.18317202  0.39019739  0.21387986     0.09100
C2291       C  0.16264310  0.39573066  0.22738259    -0.02400
C2292       C  0.15116326  0.41799020  0.22442209    -0.00700
C2293       C  0.16034413  0.43492244  0.20806376    -0.04300
C2294       C  0.18073410  0.42916609  0.19435566     0.02700
C2295       C  0.19642527  0.36736276  0.21801506     0.09500
C2296       C  0.15351209  0.37855194  0.24446186     0.35400
C2297       C  0.18969240  0.44587645  0.17670910     0.38900
C2298       C  0.21787837  0.36768627  0.23121320    -0.04700
C2299       C  0.23141230  0.34665949  0.23409720     0.02500
C2300       C  0.22329294  0.32471228  0.22418826    -0.04300
C2301       C  0.20169707  0.32461357  0.21074559    -0.00500
C2302       C  0.18826707  0.34580934  0.20791917    -0.03100
C2303       C  0.22589389  0.38981736  0.24215178     0.36200
C2304       C  0.19348312  0.30293685  0.19915299     0.39800
C2305       C  0.25360213  0.34816206  0.24749158     0.38900
C2306       C  0.16590514  0.34548919  0.19471489     0.35800
C2307       C  0.21269711  0.40086189  0.18277318     0.36500
C2308       C  0.13028647  0.42364736  0.23869411     0.39800
N2309       N  0.27139045  0.35030163  0.25787115    -0.38300
N2310       N  0.23227906  0.40742183  0.25088997    -0.39900
N2311       N  0.18691618  0.28567469  0.18987077    -0.37600
N2312       N  0.14794676  0.34525579  0.18438175    -0.40000
N2313       N  0.14620929  0.36476109  0.25798944    -0.39800
N2314       N  0.11360986  0.42810070  0.25006361    -0.37400
N2315       N  0.19677530  0.45924401  0.16264258    -0.38500
N2316       N  0.22919495  0.39602310  0.17130926    -0.40100
C2317       C  0.33242530  0.50084765  0.47674089    -0.05100
C2318       C  0.34309211  0.48009415  0.48623039     0.09100
C2319       C  0.35357369  0.46316758  0.47085163    -0.02400
C2320       C  0.35155608  0.46594946  0.44593131    -0.00700
C2321       C  0.33828480  0.48519596  0.43635821    -0.04300
C2322       C  0.33028263  0.50364238  0.45183705     0.02700
C2323       C  0.34097773  0.47509570  0.51225761     0.09500
C2324       C  0.36536237  0.44229384  0.48069959     0.35400
C2325       C  0.31899505  0.52513391  0.44259812     0.38900
C2326       C  0.32285343  0.45960924  0.52027850    -0.04700
C2327       C  0.31857584  0.45700650  0.54490598     0.02500
C2328       C  0.33218368  0.47030169  0.56163983    -0.04300
C2329       C  0.35106877  0.48493702  0.55354478    -0.00500
C2330       C  0.35548421  0.48726431  0.52887768    -0.03100
C2331       C  0.30785939  0.44720167  0.50305549     0.36200
C2332       C  0.36610430  0.49744825  0.57058799     0.39800
C2333       C  0.29932595  0.44153635  0.55275392     0.38900
C2334       C  0.37453379  0.50263330  0.52047700     0.35800
C2335       C  0.32227342  0.51862584  0.49268489     0.36500
C2336       C  0.36338580  0.44919533  0.43009597     0.39800
N2337       N  0.28405008  0.42908066  0.55892793    -0.38300
N2338       N  0.29593745  0.43738579  0.48926787    -0.39900
N2339       N  0.37810414  0.50738510  0.58421603    -0.37600
N2340       N  0.38967805  0.51493292  0.51371529    -0.40000
N2341       N  0.37461468  0.42550965  0.48849043    -0.39800
N2342       N  0.37293408  0.43607106  0.41730203    -0.37400
N2343       N  0.31025951  0.54244463  0.43535333    -0.38500
N2344       N  0.31414831  0.53276278  0.50538546    -0.40100
C2345       C  0.28002687  0.55299270  0.34802932    -0.05100
C2346       C  0.29825378  0.56875419  0.34096485     0.09100
C2347       C  0.32244433  0.56360226  0.34587270    -0.02400
C2348       C  0.32836208  0.54302524  0.35885394    -0.00700
C2349       C  0.31024979  0.52663916  0.36488163    -0.04300
C2350       C  0.28607051  0.53156324  0.35939079     0.02700
C2351       C  0.29190304  0.59131970  0.32902326     0.09500
C2352       C  0.34112860  0.57940499  0.33731954     0.35400
C2353       C  0.26729054  0.51506489  0.36625082     0.38900
C2354       C  0.29399431  0.61291392  0.34167205    -0.04700
C2355       C  0.28921607  0.63455177  0.33004948     0.02500
C2356       C  0.28162985  0.63446528  0.30582083    -0.04300
C2357       C  0.27786576  0.61250758  0.29386165    -0.00500
C2358       C  0.28377765  0.59102733  0.30521613    -0.03100
C2359       C  0.30148209  0.61280691  0.36659153     0.36200
C2360       C  0.26723147  0.61172344  0.27017057     0.39800
C2361       C  0.29265959  0.65663594  0.34318616     0.38900
C2362       C  0.28190216  0.56861142  0.29229803     0.35800
C2363       C  0.25508614  0.55902820  0.34389793     0.36500
C2364       C  0.35294121  0.53892718  0.36616345     0.39800
N2365       N  0.29527825  0.67396696  0.35412895    -0.38300
N2366       N  0.30755723  0.61269469  0.38639552    -0.39900
N2367       N  0.25867001  0.61073644  0.25134448    -0.37600
N2368       N  0.28042345  0.55075519  0.28200532    -0.40000
N2369       N  0.35588642  0.59203337  0.33030072    -0.39800
N2370       N  0.37249135  0.53599295  0.37235150    -0.37400
N2371       N  0.25237137  0.50184550  0.37164829    -0.38500
N2372       N  0.23522032  0.56386191  0.34061255    -0.40100
C2373       C  0.30816514  0.36219231  0.32506126    -0.05100
C2374       C  0.28765777  0.37228614  0.33556106     0.09100
C2375       C  0.26534285  0.36090999  0.33334385    -0.02400
C2376       C  0.26364062  0.33913493  0.32089492    -0.00700
C2377       C  0.28409344  0.32932263  0.30974806    -0.04300
C2378       C  0.30620570  0.34134566  0.31132022     0.02700
C2379       C  0.28978642  0.39589187  0.34740858     0.09500
C2380       C  0.24418664  0.37178220  0.34360958     0.35400
C2381       C  0.32696811  0.33271677  0.29856962     0.38900
C2382       C  0.29198272  0.41638098  0.33314532    -0.04700
C2383       C  0.29912470  0.43812088  0.34343889     0.02500
C2384       C  0.30333287  0.43975990  0.36861696    -0.04300
C2385       C  0.29912149  0.41921525  0.38302513    -0.00500
C2386       C  0.29274340  0.39735573  0.37231035    -0.03100
C2387       C  0.28777814  0.41469350  0.30751149     0.36200
C2388       C  0.30117173  0.42010681  0.40888680     0.39800
C2389       C  0.30301417  0.45815714  0.32741719     0.38900
C2390       C  0.28988980  0.37603789  0.38677936     0.35800
C2391       C  0.33136241  0.37330073  0.32861131     0.36500
C2392       C  0.24065564  0.32737395  0.31879793     0.39800
N2393       N  0.30597900  0.47395587  0.31441598    -0.38300
N2394       N  0.28445355  0.41322878  0.28712523    -0.39900
N2395       N  0.30282042  0.42058850  0.42952160    -0.37600
N2396       N  0.28758684  0.35897884  0.39820875    -0.40000
N2397       N  0.22728229  0.38045790  0.35175609    -0.39800
N2398       N  0.22227541  0.31805530  0.31727073    -0.37400
N2399       N  0.34368828  0.32662742  0.28811646    -0.38500
N2400       N  0.34980887  0.38212013  0.33171711    -0.40100
C2401       C  0.11262294  0.29717374  0.36032825    -0.05100
C2402       C  0.11495894  0.28343673  0.33940670     0.09100
C2403       C  0.09464411  0.27232416  0.32946731    -0.02400
C2404       C  0.07244978  0.27322094  0.34147754    -0.00700
C2405       C  0.07005137  0.28649292  0.36303158    -0.04300
C2406       C  0.09025990  0.29923604  0.37176399     0.02700
C2407       C  0.13924550  0.27900231  0.32901265     0.09500
C2408       C  0.09676445  0.25960266  0.30697544     0.35400
C2409       C  0.08830158  0.31476764  0.39243683     0.38900
C2410       C  0.15348938  0.26030969  0.33816392    -0.04700
C2411       C  0.17615000  0.25546792  0.32824737     0.02500
C2412       C  0.18488486  0.26935432  0.30904769    -0.04300
C2413       C  0.17067405  0.28840793  0.30017925    -0.00500
C2414       C  0.14801064  0.29326154  0.31023685    -0.03100
C2415       C  0.14449290  0.24572043  0.35758600     0.36200
C2416       C  0.17934452  0.30326034  0.28087054     0.39800
C2417       C  0.18968470  0.23512832  0.33688037     0.38900
C2418       C  0.13355253  0.31285438  0.30128711     0.35800
C2419       C  0.13352078  0.30882190  0.37036769     0.36500
C2420       C  0.05270088  0.25922262  0.33215051     0.39800
N2421       N  0.20017070  0.21873566  0.34387712    -0.38300
N2422       N  0.13720899  0.23417908  0.37309405    -0.39900
N2423       N  0.18599407  0.31544925  0.26559331    -0.37600
N2424       N  0.12187736  0.32845566  0.29430751    -0.40000
N2425       N  0.09841434  0.24972003  0.28888736    -0.39800
N2426       N  0.03706155  0.24791202  0.32469055    -0.37400
N2427       N  0.08680817  0.32713087  0.40894623    -0.38500
N2428       N  0.15024649  0.31797701  0.37840308    -0.40100
C2429       C  0.94483411  0.25581539  0.36070509    -0.05100
C2430       C  0.93788607  0.27104819  0.34182373     0.09100
C2431       C  0.95317063  0.28976936  0.33479763    -0.02400
C2432       C  0.97495945  0.29370342  0.34702447    -0.00700
C2433       C  0.98165836  0.27893080  0.36648423    -0.04300
C2434       C  0.96640703  0.25995849  0.37326911     0.02700
C2435       C  0.91467449  0.26702655  0.32888971     0.09500
C2436       C  0.94670802  0.30455029  0.31447357     0.35400
C2437       C  0.97331303  0.24405478  0.39257115     0.38900
C2438       C  0.89350518  0.27812468  0.33686034    -0.04700
C2439       C  0.87159909  0.27416832  0.32479971     0.02500
C2440       C  0.87058708  0.25886072  0.30458671    -0.04300
C2441       C  0.89235301  0.24901104  0.29580674    -0.00500
C2442       C  0.91403701  0.25258020  0.30831113    -0.03100
C2443       C  0.89432029  0.29363128  0.35761103     0.36200
C2444       C  0.89295715  0.23541045  0.27373586     0.39800
C2445       C  0.85038152  0.28680597  0.33269831     0.38900
C2446       C  0.93581727  0.24104980  0.30021712     0.35800
C2447       C  0.93026355  0.23519496  0.36639569     0.36500
C2448       C  0.99026879  0.31326438  0.33976239     0.39800
N2449       N  0.83356525  0.29707289  0.33897643    -0.38300
N2450       N  0.89497958  0.30600273  0.37416773    -0.39900
N2451       N  0.89386372  0.22496680  0.25590452    -0.37600
N2452       N  0.95316875  0.23174387  0.29390057    -0.40000
N2453       N  0.94158146  0.31614479  0.29810662    -0.39800
N2454       N  0.00251003  0.32883577  0.33393018    -0.37400
N2455       N  0.97883278  0.23141011  0.40800619    -0.38500
N2456       N  0.91879004  0.21855183  0.37060691    -0.40100
C2457       C  0.09498441  0.13344662  0.26235591    -0.05100
C2458       C  0.11247264  0.13980706  0.24538506     0.09100
C2459       C  0.10807093  0.13607709  0.22079481    -0.02400
C2460       C  0.08625727  0.12611670  0.21318981    -0.00700
C2461       C  0.06859369  0.12010270  0.23010644    -0.04300
C2462       C  0.07292873  0.12389289  0.25470223     0.02700
C2463       C  0.13544687  0.15107156  0.25301929     0.09500
C2464       C  0.12624425  0.14214877  0.20335249     0.35400
C2465       C  0.05508205  0.11702509  0.27215569     0.38900
C2466       C  0.15692079  0.13796257  0.25202040    -0.04700
C2467       C  0.17909670  0.14970628  0.25428475     0.02500
C2468       C  0.17989658  0.17466849  0.25873024    -0.04300
C2469       C  0.15806029  0.18711060  0.26241924    -0.00500
C2470       C  0.13600544  0.17549178  0.25885672    -0.03100
C2471       C  0.15609385  0.11241308  0.24783982     0.36200
C2472       C  0.15792094  0.21180337  0.27017605     0.39800
C2473       C  0.20084988  0.13605577  0.25064993     0.38900
C2474       C  0.11379307  0.18886238  0.26024237     0.35800
C2475       C  0.10010037  0.13589309  0.28767093     0.36500
C2476       C  0.08197415  0.12206857  0.18790461     0.39800
N2477       N  0.21808441  0.12499273  0.24773349    -0.38300
N2478       N  0.15537685  0.09203194  0.24457597    -0.39900
N2479       N  0.15719682  0.23146045  0.27644725    -0.37600
N2480       N  0.09600045  0.19938095  0.26121906    -0.40000
N2481       N  0.14091547  0.14682522  0.18958837    -0.39800
N2482       N  0.07861248  0.11881758  0.16773617    -0.37400
N2483       N  0.04077353  0.11151117  0.28599337    -0.38500
N2484       N  0.10426403  0.13765430  0.30787845    -0.40100
C2485       C  0.93894316  0.10904902  0.23627602    -0.05100
C2486       C  0.93450843  0.13355331  0.23278202     0.09100
C2487       C  0.95294868  0.14839304  0.22426753    -0.02400
C2488       C  0.97578009  0.13881835  0.21925858    -0.00700
C2489       C  0.98044575  0.11413822  0.22272961    -0.04300
C2490       C  0.96159812  0.09925222  0.23093544     0.02700
C2491       C  0.91018285  0.14375964  0.23751190     0.09500
C2492       C  0.94830590  0.17363756  0.22066989     0.35400
C2493       C  0.96530856  0.07382781  0.23430455     0.38900
C2494       C  0.90537763  0.15547529  0.25933645    -0.04700
C2495       C  0.88294306  0.16633564  0.26314020     0.02500
C2496       C  0.86544263  0.16604983  0.24493933    -0.04300
C2497       C  0.86981445  0.15351959  0.22349549    -0.00500
C2498       C  0.89211644  0.14227279  0.21985241    -0.03100
C2499       C  0.92364245  0.15660693  0.27774486     0.36200
C2500       C  0.85152626  0.15256245  0.20505000     0.39800
C2501       C  0.87778844  0.17793616  0.28575107     0.38900
C2502       C  0.89668594  0.12944739  0.19780792     0.35800
C2503       C  0.92020652  0.09399549  0.24590235     0.36500
C2504       C  0.99409436  0.15439208  0.20964981     0.39800
N2505       N  0.87348972  0.18719812  0.30373034    -0.38300
N2506       N  0.93820465  0.15758720  0.29245692    -0.39900
N2507       N  0.83698904  0.15181648  0.19029146    -0.37600
N2508       N  0.90039797  0.11908287  0.18030664    -0.40000
N2509       N  0.94449771  0.19376176  0.21791309    -0.39800
N2510       N  0.00864165  0.16688089  0.20197460    -0.37400
N2511       N  0.96810410  0.05349413  0.23673118    -0.38500
N2512       N  0.90531222  0.08203796  0.25374649    -0.40100
C2513       C  0.94043407  0.65322082  0.34657570    -0.05100
C2514       C  0.93824544  0.67440158  0.33306187     0.09100
C2515       C  0.95811927  0.68979585  0.33110017    -0.02400
C2516       C  0.98003892  0.68399654  0.34242115    -0.00700
C2517       C  0.98235280  0.66260609  0.35580321    -0.04300
C2518       C  0.96245945  0.64707340  0.35740510     0.02700
C2519       C  0.91501937  0.68027097  0.32066657     0.09500
C2520       C  0.95578596  0.71196938  0.31788909     0.35400
C2521       C  0.96480974  0.62426748  0.36949772     0.38900
C2522       C  0.89936103  0.69747481  0.33033841    -0.04700
C2523       C  0.87722844  0.70245296  0.31907116     0.02500
C2524       C  0.87070054  0.69071748  0.29751004    -0.04300
C2525       C  0.88656233  0.67350007  0.28783871    -0.00500
C2526       C  0.90848404  0.66826264  0.29943201    -0.03100
C2527       C  0.90620307  0.71028919  0.35184549     0.36200
C2528       C  0.88015043  0.66058476  0.26627331     0.39800
C2529       C  0.86147225  0.72004710  0.32967794     0.38900
C2530       C  0.92451515  0.65053020  0.28943582     0.35800
C2531       C  0.91971425  0.63805948  0.34992045     0.36500
C2532       C  0.99990462  0.70053963  0.34084920     0.39800
N2533       N  0.84893179  0.73386077  0.33854829    -0.38300
N2534       N  0.91177999  0.72067897  0.36885224    -0.39900
N2535       N  0.87514586  0.65022006  0.24907493    -0.37600
N2536       N  0.93733985  0.63634838  0.28158239    -0.40000
N2537       N  0.95383061  0.72977597  0.30756763    -0.39800
N2538       N  0.01578031  0.71369883  0.33954410    -0.37400
N2539       N  0.96676484  0.60600561  0.37898910    -0.38500
N2540       N  0.90311725  0.62609835  0.35277704    -0.40100
C2541       C  0.09708041  0.66641981  0.32651569    -0.05100
C2542       C  0.11561676  0.67575584  0.34084262     0.09100
C2543       C  0.11224126  0.67791540  0.36570200    -0.02400
C2544       C  0.09013871  0.67164033  0.37614677    -0.00700
C2545       C  0.07118948  0.66243349  0.36177965    -0.04300
C2546       C  0.07528194  0.65918023  0.33693508     0.02700
C2547       C  0.13892134  0.68289565  0.32969849     0.09500
C2548       C  0.13166008  0.68668215  0.38056206     0.35400
C2549       C  0.05759797  0.64738492  0.32204534     0.38900
C2550       C  0.14396503  0.70718945  0.32521457    -0.04700
C2551       C  0.16552978  0.71374070  0.31393377     0.02500
C2552       C  0.18192064  0.69601944  0.30662067    -0.04300
C2553       C  0.17742649  0.67185738  0.31206417    -0.00500
C2554       C  0.15594385  0.66530443  0.32351385    -0.03100
C2555       C  0.12689424  0.72541565  0.33211578     0.36200
C2556       C  0.19503115  0.65380771  0.30605433     0.39800
C2557       C  0.17123906  0.73876155  0.31043541     0.38900
C2558       C  0.15127504  0.64045540  0.32899788     0.35800
C2559       C  0.10044499  0.66448278  0.30086823     0.36500
C2560       C  0.08711861  0.67527775  0.40166406     0.39800
N2561       N  0.17594609  0.75869174  0.30774847    -0.38300
N2562       N  0.11330588  0.73996921  0.33768795    -0.39900
N2563       N  0.20920942  0.63948036  0.30142854    -0.37600
N2564       N  0.14742916  0.62065490  0.33342022    -0.40000
N2565       N  0.14716306  0.69364223  0.39239732    -0.39800
N2566       N  0.08487203  0.67809716  0.42204300    -0.37400
N2567       N  0.04361508  0.63781002  0.31015424    -0.38500
N2568       N  0.10317204  0.66307006  0.28041164    -0.40100
C2569       C  0.00729761  0.96132701  0.19987645    -0.05100
C2570       C  0.02805574  0.97096527  0.18948776     0.09100
C2571       C  0.04511820  0.95573074  0.17910659    -0.02400
C2572       C  0.04247526  0.93077094  0.18100026    -0.00700
C2573       C  0.02294791  0.92092490  0.19382475    -0.04300
C2574       C  0.00449955  0.93641937  0.20176948     0.02700
C2575       C  0.03262055  0.99707105  0.19177177     0.09500
C2576       C  0.06572271  0.96578928  0.16710908     0.35400
C2577       C  0.98274210  0.92724989  0.21235452     0.38900
C2578       C  0.04217850  0.00592236  0.21337794    -0.04700
C2579       C  0.04267915  0.03064960  0.21766634     0.02500
C2580       C  0.03263325  0.04656932  0.20075523    -0.04300
C2581       C  0.02426944  0.03779143  0.17861097    -0.00500
C2582       C  0.02476899  0.01305645  0.17392136    -0.03100
C2583       C  0.05043152  0.98942341  0.23166433     0.36200
C2584       C  0.01520937  0.05422336  0.16070912     0.39800
C2585       C  0.05260711  0.03954412  0.23996762     0.38900
C2586       C  0.01694939  0.00395776  0.15094284     0.35800
C2587       C  0.98929412  0.97725932  0.20965853     0.36500
C2588       C  0.05968480  0.91529038  0.16931606     0.39800
N2589       N  0.06072127  0.04663773  0.25765234    -0.38300
N2590       N  0.05680459  0.97619558  0.24625917    -0.39900
N2591       N  0.00798438  0.06739766  0.14646627    -0.37600
N2592       N  0.01101182  0.99668535  0.13249329    -0.40000
N2593       N  0.08214696  0.97378247  0.15747208    -0.39800
N2594       N  0.07331491  0.90288493  0.15994854    -0.37400
N2595       N  0.96499369  0.92045106  0.22044200    -0.38500
N2596       N  0.97511096  0.99008226  0.21751797    -0.40100
C2597       C  0.94484877  0.83943591  0.23792186    -0.05100
C2598       C  0.93899453  0.81978214  0.22328450     0.09100
C2599       C  0.95410196  0.81326969  0.20421083    -0.02400
C2600       C  0.97494757  0.82654670  0.19964393    -0.00700
C2601       C  0.98085596  0.84613181  0.21435315    -0.04300
C2602       C  0.96593439  0.85239851  0.23366727     0.02700
C2603       C  0.91642650  0.80639430  0.22751744     0.09500
C2604       C  0.94806058  0.79297971  0.18926553     0.35400
C2605       C  0.97276280  0.87154304  0.24975240     0.38900
C2606       C  0.89458916  0.81595508  0.21939447    -0.04700
C2607       C  0.87317503  0.80342924  0.22314747     0.02500
C2608       C  0.87340214  0.78119829  0.23518433    -0.04300
C2609       C  0.89537485  0.77186070  0.24372338    -0.00500
C2610       C  0.91684743  0.78437060  0.23969480    -0.03100
C2611       C  0.89423352  0.83868655  0.20691985     0.36200
C2612       C  0.89597556  0.74990201  0.25743578     0.39800
C2613       C  0.85106518  0.81340323  0.21399000     0.38900
C2614       C  0.93944895  0.77466409  0.24805855     0.35800
C2615       C  0.92911959  0.84626768  0.25734720     0.36500
C2616       C  0.99010846  0.82035058  0.17957573     0.39800
N2617       N  0.83366528  0.82186543  0.20666699    -0.38300
N2618       N  0.89395102  0.85683901  0.19704873    -0.39900
N2619       N  0.89688497  0.73250536  0.26854800    -0.37600
N2620       N  0.95753871  0.76694561  0.25456973    -0.40000
N2621       N  0.94322606  0.77669952  0.17748099    -0.39800
N2622       N  0.00217054  0.81549143  0.16351627    -0.37400
N2623       N  0.97826491  0.88668510  0.26271418    -0.38500
N2624       N  0.91645022  0.85177130  0.27271682    -0.40100
C2625       C  0.10263753  0.82630516  0.20722588    -0.05100
C2626       C  0.11157203  0.82761665  0.23082447     0.09100
C2627       C  0.09913358  0.84074822  0.24831252    -0.02400
C2628       C  0.07732707  0.85190278  0.24243154    -0.00700
C2629       C  0.06798415  0.84989034  0.21906274    -0.04300
C2630       C  0.08064430  0.83714436  0.20143819     0.02700
C2631       C  0.13389928  0.81462457  0.23731352     0.09500
C2632       C  0.10900188  0.84292490  0.27222440     0.35400
C2633       C  0.07090316  0.83505453  0.17745184     0.38900
C2634       C  0.15606779  0.82632859  0.23624942    -0.04700
C2635       C  0.17738592  0.81351181  0.24026493     0.02500
C2636       C  0.17660973  0.78874619  0.24577985    -0.04300
C2637       C  0.15399864  0.77733947  0.24767850    -0.00500
C2638       C  0.13280523  0.79039409  0.24379451    -0.03100
C2639       C  0.15681367  0.85171306  0.23112545     0.36200
C2640       C  0.15215195  0.75212558  0.25338070     0.39800
C2641       C  0.19995111  0.82589316  0.23738445     0.38900
C2642       C  0.10970406  0.77901509  0.24681111     0.35800
C2643       C  0.11635635  0.81420882  0.18886906     0.36500
C2644       C  0.06435994  0.86525401  0.26044092     0.39800
N2645       N  0.21770766  0.83617902  0.23503628    -0.38300
N2646       N  0.15728650  0.87201017  0.22733493    -0.39900
N2647       N  0.15036410  0.73197712  0.25757823    -0.37600
N2648       N  0.09128929  0.77002840  0.24948606    -0.40000
N2649       N  0.11710560  0.84472134  0.29120457    -0.39800
N2650       N  0.05398285  0.87590223  0.27479291    -0.37400
N2651       N  0.06302277  0.83333728  0.15836869    -0.38500
N2652       N  0.12746129  0.80478615  0.17420371    -0.40100
C2653       C  0.01578516  0.63039978  0.52582436    -0.05100
C2654       C  0.02884245  0.64435908  0.50946771     0.09100
C2655       C  0.04496964  0.66171761  0.51804027    -0.02400
C2656       C  0.04711294  0.66604486  0.54280357    -0.00700
C2657       C  0.03394638  0.65219860  0.55932221    -0.04300
C2658       C  0.01869218  0.63395094  0.55067928     0.02700
C2659       C  0.02484782  0.64196510  0.48307863     0.09500
C2660       C  0.05894529  0.67553760  0.50117698     0.35400
C2661       C  0.00613842  0.61864019  0.56736044     0.38900
C2662       C  0.00783065  0.65663635  0.47160035    -0.04700
C2663       C  0.00631395  0.65716814  0.44641604     0.02500
C2664       C  0.02205552  0.64308631  0.43240411    -0.04300
C2665       C  0.03814988  0.62733619  0.44409728    -0.00500
C2666       C  0.03957083  0.62688104  0.46932677    -0.03100
C2667       C  0.99273670  0.67222634  0.48577658     0.36200
C2668       C  0.05338072  0.61161403  0.43024220     0.39800
C2669       C  0.98953536  0.67348130  0.43513523     0.38900
C2670       C  0.05687848  0.61162679  0.48122661     0.35800
C2671       C  0.99894589  0.61279491  0.51702102     0.36500
C2672       C  0.06158057  0.68589293  0.55104158     0.39800
N2673       N  0.97613472  0.68646035  0.42612946    -0.38300
N2674       N  0.98080026  0.68477218  0.49705599    -0.39900
N2675       N  0.06556799  0.59903789  0.41926276    -0.37600
N2676       N  0.07072029  0.59956471  0.49081781    -0.40000
N2677       N  0.07010516  0.68636943  0.48759038    -0.39800
N2678       N  0.07292956  0.70189243  0.55755066    -0.37400
N2679       N  0.99623589  0.60637473  0.58070576    -0.38500
N2680       N  0.98538500  0.59885220  0.51000810    -0.40100
C2681       C  0.10498470  0.69842636  0.65691826    -0.05100
C2682       C  0.12184985  0.67975095  0.65880371     0.09100
C2683       C  0.11720246  0.65767411  0.64759949    -0.02400
C2684       C  0.09559518  0.65409168  0.63496637    -0.00700
C2685       C  0.07854299  0.67270288  0.63322394    -0.04300
C2686       C  0.08348683  0.69497801  0.64406260     0.02700
C2687       C  0.14499592  0.68357971  0.67184742     0.09500
C2688       C  0.13488109  0.63873677  0.64892938     0.35400
C2689       C  0.06687499  0.71468677  0.64120593     0.38900
C2690       C  0.14827688  0.67465122  0.69521249    -0.04700
C2691       C  0.17047738  0.67740392  0.70704547     0.02500
C2692       C  0.18923996  0.69048727  0.69614596    -0.04300
C2693       C  0.18556251  0.69974574  0.67271071    -0.00500
C2694       C  0.16380222  0.69578817  0.66054168    -0.03100
C2695       C  0.12856790  0.66292949  0.70720788     0.36200
C2696       C  0.20360392  0.71415550  0.66101236     0.39800
C2697       C  0.17411384  0.66593762  0.73005609     0.38900
C2698       C  0.16066711  0.70441580  0.63623861     0.35800
C2699       C  0.10991374  0.72126965  0.66809378     0.36500
C2700       C  0.09071047  0.63100671  0.62431142     0.39800
N2701       N  0.17702838  0.65662630  0.74831926    -0.38300
N2702       N  0.11274989  0.65376979  0.71681609    -0.39900
N2703       N  0.21763659  0.72564944  0.65116393    -0.37600
N2704       N  0.15823790  0.71127234  0.61685805    -0.40000
N2705       N  0.14910864  0.62375528  0.65005837    -0.39800
N2706       N  0.08687278  0.61254383  0.61586832    -0.37400
N2707       N  0.05366086  0.73042500  0.63878927    -0.38500
N2708       N  0.11394276  0.73948546  0.67697745    -0.40100
C2709       C  0.96389727  0.67179185  0.66769572    -0.05100
C2710       C  0.94406121  0.67947730  0.65403989     0.09100
C2711       C  0.94723326  0.68504852  0.62964776    -0.02400
C2712       C  0.96999780  0.68300074  0.61898829    -0.00700
C2713       C  0.98972711  0.67388500  0.63222373    -0.04300
C2714       C  0.98648686  0.66855885  0.65683088     0.02700
C2715       C  0.91998921  0.68274575  0.66554169     0.09500
C2716       C  0.92694826  0.69296133  0.61544428     0.35400
C2717       C  0.00612593  0.65929517  0.67109503     0.38900
C2718       C  0.91126217  0.70596017  0.67010136    -0.04700
C2719       C  0.88835236  0.70924153  0.68005917     0.02500
C2720       C  0.87449176  0.68934894  0.68693773    -0.04300
C2721       C  0.88326881  0.66609688  0.68270335    -0.00500
C2722       C  0.90581897  0.66279875  0.67174828    -0.03100
C2723       C  0.92629747  0.72648379  0.66536889     0.36200
C2724       C  0.86920894  0.64557873  0.68973908     0.39800
C2725       C  0.87902752  0.73320796  0.68330229     0.38900
C2726       C  0.91460992  0.63888512  0.66710809     0.35800
C2727       C  0.96105773  0.66751707  0.69311483     0.36500
C2728       C  0.97316964  0.69147309  0.59465823     0.39800
N2729       N  0.87152980  0.75232277  0.68564976    -0.38300
N2730       N  0.93843440  0.74279825  0.66179130    -0.39900
N2731       N  0.85815640  0.62907635  0.69535745    -0.37600
N2732       N  0.92171461  0.61981574  0.66349777    -0.40000
N2733       N  0.91078950  0.69927539  0.60410237    -0.39800
N2734       N  0.97575603  0.69838405  0.57532970    -0.37400
N2735       N  0.02177529  0.65197150  0.68254953    -0.38500
N2736       N  0.95873095  0.66421734  0.71340316    -0.40100
C2737       C  0.11509853  0.83644651  0.76885249    -0.05100
C2738       C  0.11985476  0.81369537  0.77854691     0.09100
C2739       C  0.10265464  0.80237827  0.79301578    -0.02400
C2740       C  0.08055979  0.81362143  0.79745256    -0.00700
C2741       C  0.07542224  0.83607145  0.78709441    -0.04300
C2742       C  0.09284746  0.84754346  0.77289804     0.02700
C2743       C  0.14297099  0.80150162  0.77324350     0.09500
C2744       C  0.10768715  0.77908472  0.80319993     0.35400
C2745       C  0.08753048  0.87020463  0.76147685     0.38900
C2746       C  0.16323826  0.80603321  0.78756461    -0.04700
C2747       C  0.18502586  0.79439571  0.78265993     0.02500
C2748       C  0.18657293  0.77809218  0.76345209    -0.04300
C2749       C  0.16633575  0.77376971  0.74896248    -0.00500
C2750       C  0.14460944  0.78559754  0.75375563    -0.03100
C2751       C  0.16154856  0.82269691  0.80733931     0.36200
C2752       C  0.16800691  0.75751074  0.72885412     0.39800
C2753       C  0.20561097  0.79863988  0.79787993     0.38900
C2754       C  0.12397437  0.78172115  0.73847800     0.35800
C2755       C  0.13308432  0.84823380  0.75444532     0.36500
C2756       C  0.06326525  0.80229510  0.81305856     0.39800
N2757       N  0.22189210  0.80207591  0.81020095    -0.38300
N2758       N  0.16003453  0.83606587  0.82303334    -0.39900
N2759       N  0.16930913  0.74462196  0.71274501    -0.37600
N2760       N  0.10750232  0.77878791  0.72625760    -0.40000
N2761       N  0.11165976  0.76047469  0.81128368    -0.39800
N2762       N  0.04941736  0.79339917  0.82553469    -0.37400
N2763       N  0.08325961  0.88822865  0.75227960    -0.38500
N2764       N  0.14754528  0.85757504  0.74304341    -0.40100
C2765       C  0.96254898  0.81980655  0.74442230    -0.05100
C2766       C  0.94598953  0.81050538  0.76088063     0.09100
C2767       C  0.95018925  0.81252373  0.78569199    -0.02400
C2768       C  0.97119848  0.82345633  0.79404268    -0.00700
C2769       C  0.98838961  0.83154256  0.77758891    -0.04300
C2770       C  0.98408732  0.82977384  0.75276528     0.02700
C2771       C  0.92385155  0.79856381  0.75242152     0.09500
C2772       C  0.93251880  0.80387404  0.80254817     0.35400
C2773       C  0.00145396  0.83898495  0.73590012     0.38900
C2774       C  0.92401350  0.77386588  0.74800194    -0.04700
C2775       C  0.90237852  0.76167801  0.74400763     0.02500
C2776       C  0.88023362  0.77413407  0.74527502    -0.04300
C2777       C  0.88047545  0.79930715  0.74871589    -0.00500
C2778       C  0.90229156  0.81141984  0.75167654    -0.03100
C2779       C  0.94650256  0.76087645  0.74845934     0.36200
C2780       C  0.85846787  0.81290249  0.75086194     0.39800
C2781       C  0.90329777  0.73626199  0.73904142     0.38900
C2782       C  0.90263375  0.83714888  0.75477882     0.35800
C2783       C  0.95680258  0.82023856  0.71912179     0.36500
C2784       C  0.97500477  0.82669692  0.81951292     0.39800
N2785       N  0.90446152  0.71597374  0.73532575    -0.38300
N2786       N  0.96442805  0.75053770  0.74891029    -0.39900
N2787       N  0.84107078  0.82395479  0.75269482    -0.37600
N2788       N  0.90299057  0.85766725  0.75710971    -0.40000
N2789       N  0.91825486  0.79706934  0.81584319    -0.39800
N2790       N  0.97796878  0.82948043  0.83981184    -0.37400
N2791       N  0.01539367  0.84632042  0.72254127    -0.38500
N2792       N  0.95201532  0.82103139  0.69898704    -0.40100
C2793       C  0.02449651  0.26983382  0.53099201    -0.05100
C2794       C  0.03041782  0.29124661  0.51899155     0.09100
C2795       C  0.03533218  0.31201128  0.53252455    -0.02400
C2796       C  0.03390715  0.31143437  0.55774201    -0.00700
C2797       C  0.02822910  0.28998425  0.56963229    -0.04300
C2798       C  0.02348069  0.26920258  0.55619474     0.02700
C2799       C  0.03085599  0.29183503  0.49209705     0.09500
C2800       C  0.04210975  0.33390896  0.52052002     0.35400
C2801       C  0.01790869  0.24702457  0.56834872     0.38900
C2802       C  0.01256784  0.30366057  0.47925392    -0.04700
C2803       C  0.01169899  0.30241291  0.45402289     0.02500
C2804       C  0.02896078  0.28896936  0.44125805    -0.04300
C2805       C  0.04785299  0.27789651  0.45422016    -0.00500
C2806       C  0.04883673  0.27951175  0.47942435    -0.03100
C2807       C  0.99450533  0.31711421  0.49207876     0.36200
C2808       C  0.06606778  0.26416114  0.44189762     0.39800
C2809       C  0.99337906  0.31571872  0.44129195     0.38900
C2810       C  0.06831339  0.26823824  0.49244297     0.35800
C2811       C  0.01963543  0.24833768  0.51736160     0.36500
C2812       C  0.03760509  0.33306323  0.57150154     0.39800
N2813       N  0.97877221  0.32640687  0.43120464    -0.38300
N2814       N  0.98028519  0.32804249  0.50235411    -0.39900
N2815       N  0.08070356  0.25329518  0.43214064    -0.37600
N2816       N  0.08377283  0.25915297  0.50283233    -0.40000
N2817       N  0.04746968  0.35142003  0.51097119    -0.39800
N2818       N  0.04030297  0.35031512  0.58255565    -0.37400
N2819       N  0.01345828  0.22933920  0.57804725    -0.38500
N2820       N  0.01603362  0.23117940  0.50641826    -0.40100
C2821       C  0.11457763  0.26629055  0.64608452    -0.05100
C2822       C  0.11801464  0.27548340  0.66928837     0.09100
C2823       C  0.09950518  0.28863035  0.68021429    -0.02400
C2824       C  0.07765971  0.29266741  0.66798935    -0.00700
C2825       C  0.07391352  0.28316135  0.64475206    -0.04300
C2826       C  0.09276696  0.27007599  0.63383643     0.02700
C2827       C  0.14077115  0.27013203  0.68263324     0.09500
C2828       C  0.10285652  0.29755151  0.70433652     0.35400
C2829       C  0.08967819  0.25956323  0.61030102     0.38900
C2830       C  0.16086679  0.28520856  0.68051062    -0.04700
C2831       C  0.18255881  0.27941264  0.69231619     0.02500
C2832       C  0.18444057  0.25818562  0.70593637    -0.04300
C2833       C  0.16406645  0.24343149  0.70838327    -0.00500
C2834       C  0.14237897  0.24942851  0.69686988    -0.03100
C2835       C  0.15913911  0.30664433  0.66607831     0.36200
C2836       C  0.16542708  0.22157869  0.72217012     0.39800
C2837       C  0.20257843  0.29580209  0.69126884     0.38900
C2838       C  0.12165556  0.23409566  0.69941935     0.35800
C2839       C  0.13335307  0.25217608  0.63509942     0.36500
C2840       C  0.05936099  0.30715007  0.67924105     0.39800
N2841       N  0.21841803  0.30905516  0.69061831    -0.38300
N2842       N  0.15764468  0.32370526  0.65449486    -0.39900
N2843       N  0.16608412  0.20404280  0.73305638    -0.37600
N2844       N  0.10510518  0.22190546  0.70147420    -0.40000
N2845       N  0.10558816  0.30448627  0.72364409    -0.39800
N2846       N  0.04483492  0.31876339  0.68827185    -0.37400
N2847       N  0.08728992  0.25127522  0.59148532    -0.38500
N2848       N  0.14827044  0.24081046  0.62640239    -0.40100
C2849       C  0.94202954  0.29021721  0.65051240    -0.05100
C2850       C  0.94016739  0.27327723  0.66904344     0.09100
C2851       C  0.96075819  0.26075759  0.67659086    -0.02400
C2852       C  0.98293774  0.26447838  0.66511049    -0.00700
C2853       C  0.98480324  0.28095615  0.64591233    -0.04300
C2854       C  0.96412419  0.29402195  0.63894065     0.02700
C2855       C  0.91616603  0.26739753  0.67947016     0.09500
C2856       C  0.95893599  0.24366464  0.69599941     0.35400
C2857       C  0.96535410  0.31154389  0.61986921     0.38900
C2858       C  0.90397064  0.24668295  0.67183553    -0.04700
C2859       C  0.88161897  0.24068436  0.68179412     0.02500
C2860       C  0.87121328  0.25540937  0.69943966    -0.04300
C2861       C  0.88277393  0.27679751  0.70611203    -0.00500
C2862       C  0.90535747  0.28259593  0.69645914    -0.03100
C2863       C  0.91458083  0.23143270  0.65377906     0.36200
C2864       C  0.87073839  0.29350230  0.72178261     0.39800
C2865       C  0.86968741  0.21894782  0.67433004     0.38900
C2866       C  0.91753329  0.30414447  0.70404308     0.35800
C2867       C  0.92098218  0.30353295  0.64314054     0.36500
C2868       C  0.00343455  0.25030262  0.67239342     0.39800
N2869       N  0.86030984  0.20157267  0.66826591    -0.38300
N2870       N  0.92311724  0.21929796  0.63939314    -0.39900
N2871       N  0.86085684  0.30714080  0.73374584    -0.37600
N2872       N  0.92724410  0.32136056  0.71006320    -0.40000
N2873       N  0.95740557  0.23002345  0.71145958    -0.39800
N2874       N  0.01975860  0.23896075  0.67822082    -0.37400
N2875       N  0.96618224  0.32540208  0.60454111    -0.38500
N2876       N  0.90417344  0.31420501  0.63743685    -0.40100
C2877       C  0.04414923  0.99145571  0.79340556    -0.05100
C2878       C  0.02887621  0.98151113  0.81078042     0.09100
C2879       C  0.01563114  0.99642679  0.82607638    -0.02400
C2880       C  0.01674386  0.02135520  0.82323473    -0.00700
C2881       C  0.03160709  0.03133579  0.80546346    -0.04300
C2882       C  0.04559695  0.01634112  0.79078881     0.02700
C2883       C  0.02510098  0.95529511  0.81104458     0.09500
C2884       C  0.00040784  0.98602893  0.84424273     0.35400
C2885       C  0.06015160  0.02637805  0.77183189     0.38900
C2886       C  0.03776790  0.94071140  0.82722460    -0.04700
C2887       C  0.03718368  0.91573118  0.82455535     0.02500
C2888       C  0.02449138  0.90545048  0.80526099    -0.04300
C2889       C  0.01033292  0.92013859  0.79018210    -0.00500
C2890       C  0.01032927  0.94498204  0.79343881    -0.03100
C2891       C  0.05165453  0.95149690  0.84629417     0.36200
C2892       C  0.99679720  0.91005943  0.77041634     0.39800
C2893       C  0.04923230  0.90061680  0.84187718     0.38900
C2894       C  0.99562861  0.96012793  0.77825505     0.35800
C2895       C  0.05757413  0.97597077  0.77751214     0.36500
C2896       C  0.00222325  0.03668303  0.83825443     0.39800
N2897       N  0.05862913  0.88853850  0.85583437    -0.38300
N2898       N  0.06260245  0.96019412  0.86156305    -0.39900
N2899       N  0.98597816  0.90207772  0.75466094    -0.37600
N2900       N  0.98383479  0.97224496  0.76628759    -0.40000
N2901       N  0.98839512  0.97765883  0.85880870    -0.39800
N2902       N  0.99048265  0.04889719  0.85009212    -0.37400
N2903       N  0.07164969  0.03442778  0.75667488    -0.38500
N2904       N  0.06812122  0.96360531  0.76474549    -0.40100
C2905       C  0.11492309  0.11477238  0.80392031    -0.05100
C2906       C  0.11888697  0.12809737  0.78292966     0.09100
C2907       C  0.10046690  0.13077407  0.76590020    -0.02400
C2908       C  0.07808670  0.12001825  0.76972014    -0.00700
C2909       C  0.07402387  0.10644829  0.79070084    -0.04300
C2910       C  0.09246116  0.10421358  0.80796952     0.02700
C2911       C  0.14205044  0.14065359  0.77934621     0.09500
C2912       C  0.10465686  0.14461755  0.74436914     0.35400
C2913       C  0.08808987  0.09192291  0.83037862     0.38900
C2914       C  0.15914481  0.13146728  0.76340835    -0.04700
C2915       C  0.18023151  0.14435070  0.75866830     0.02500
C2916       C  0.18500062  0.16613312  0.77092328    -0.04300
C2917       C  0.16801970  0.17451104  0.78794341    -0.00500
C2918       C  0.14638154  0.16222824  0.79139426    -0.03100
C2919       C  0.15483008  0.10874763  0.75169761     0.36200
C2920       C  0.17264138  0.19533758  0.80268087     0.39800
C2921       C  0.19641302  0.13520258  0.74058928     0.38900
C2922       C  0.12819311  0.17198575  0.80712547     0.35800
C2923       C  0.13405226  0.11196633  0.82130449     0.36500
C2924       C  0.05952468  0.12262671  0.75170156     0.39800
N2925       N  0.20927230  0.12782566  0.72618277    -0.38300
N2926       N  0.15142132  0.09060909  0.74240777    -0.39900
N2927       N  0.17594507  0.21185244  0.81466027    -0.37600
N2928       N  0.11355661  0.17970877  0.81950416    -0.40000
N2929       N  0.10811524  0.15557678  0.72718316    -0.39800
N2930       N  0.04468952  0.12487751  0.73739520    -0.37400
N2931       N  0.08460240  0.08228253  0.84833726    -0.38500
N2932       N  0.14936842  0.10976232  0.83509975    -0.40100
C2933       C  0.95320787  0.12855425  0.79045824    -0.05100
C2934       C  0.94255254  0.12234642  0.76840650     0.09100
C2935       C  0.95400494  0.10606701  0.75299813    -0.02400
C2936       C  0.97588058  0.09561725  0.75988156    -0.00700
C2937       C  0.98668087  0.10214926  0.78177454    -0.04300
C2938       C  0.97543481  0.11871024  0.79697770     0.02700
C2939       C  0.91923320  0.13325278  0.76155726     0.09500
C2940       C  0.94335056  0.10029000  0.73004632     0.35400
C2941       C  0.98649212  0.12510110  0.81958827     0.38900
C2942       C  0.91881247  0.15570040  0.75030836    -0.04700
C2943       C  0.89694411  0.16771999  0.74691452     0.02500
C2944       C  0.87520216  0.15706173  0.75433832    -0.04300
C2945       C  0.87567206  0.13381335  0.76434194    -0.00500
C2946       C  0.89768939  0.12208726  0.76811967    -0.03100
C2947       C  0.94108201  0.16664907  0.74282155     0.36200
C2948       C  0.85380449  0.12246941  0.77232216     0.39800
C2949       C  0.89711232  0.19126462  0.73614340     0.38900
C2950       C  0.89837575  0.09891244  0.77970174     0.35800
C2951       C  0.94109771  0.14487530  0.80652452     0.36500
C2952       C  0.98734888  0.07823740  0.74444337     0.39800
N2953       N  0.89768632  0.21015373  0.72782112    -0.38300
N2954       N  0.95889197  0.17524817  0.73685377    -0.39900
N2955       N  0.83651858  0.11322711  0.77883075    -0.37600
N2956       N  0.89906243  0.08047256  0.78900967    -0.40000
N2957       N  0.93491958  0.09578941  0.71166914    -0.39800
N2958       N  0.99647842  0.06426445  0.73225273    -0.37400
N2959       N  0.99542854  0.13010866  0.83759022    -0.38500
N2960       N  0.93133568  0.15780691  0.81935169    -0.40100
C2961       C  0.37048554  0.05876760  0.27458237    -0.05100
C2962       C  0.36840849  0.07049134  0.29686671     0.09100
C2963       C  0.37737267  0.05932618  0.31770343    -0.02400
C2964       C  0.38795757  0.03644536  0.31629021    -0.00700
C2965       C  0.39009251  0.02481219  0.29398755    -0.04300
C2966       C  0.38150155  0.03612732  0.27312214     0.02700
C2967       C  0.35715421  0.09483052  0.29797995     0.09500
C2968       C  0.37617702  0.07161259  0.34048302     0.35400
C2969       C  0.38458067  0.02475092  0.25004994     0.38900
C2970       C  0.33336163  0.09763995  0.30575336    -0.04700
C2971       C  0.32183078  0.12004531  0.30392084     0.02500
C2972       C  0.33354323  0.13966228  0.29293646    -0.04300
C2973       C  0.35817200  0.13709819  0.28689037    -0.00500
C2974       C  0.36981033  0.11485892  0.28960277    -0.03100
C2975       C  0.32038597  0.07714155  0.31473494     0.36200
C2976       C  0.37175340  0.15681836  0.27703129     0.39800
C2977       C  0.29801071  0.12281877  0.31377957     0.38900
C2978       C  0.39474548  0.11226035  0.28289231     0.35800
C2979       C  0.36145917  0.07022583  0.25309289     0.36500
C2980       C  0.39671558  0.02482271  0.33778702     0.39800
N2981       N  0.27905573  0.12503653  0.32173227    -0.38300
N2982       N  0.31001523  0.06074670  0.32179385    -0.39900
N2983       N  0.38286761  0.17238031  0.26924356    -0.37600
N2984       N  0.41458859  0.11014544  0.27747444    -0.40000
N2985       N  0.37532395  0.08141294  0.35867667    -0.39800
N2986       N  0.40369316  0.01546642  0.35489918    -0.37400
N2987       N  0.38716682  0.01579308  0.23159257    -0.38500
N2988       N  0.35429224  0.07956049  0.23604771    -0.40100
C2989       C  0.36011607  0.85158884  0.27272002    -0.05100
C2990       C  0.35113419  0.86800102  0.28951399     0.09100
C2991       C  0.33082487  0.86206560  0.30315183    -0.02400
C2992       C  0.31911885  0.83999923  0.29952742    -0.00700
C2993       C  0.32778395  0.82365759  0.28221748    -0.04300
C2994       C  0.34849494  0.82961922  0.26897419     0.02700
C2995       C  0.36262816  0.89201696  0.29177538     0.09500
C2996       C  0.32190206  0.87883787  0.32074756     0.35400
C2997       C  0.35731852  0.81387446  0.25042971     0.38900
C2998       C  0.35452872  0.91111991  0.27745083    -0.04700
C2999       C  0.36676951  0.93316395  0.27760153     0.02500
C3000       C  0.38721672  0.93634690  0.29231384    -0.04300
C3001       C  0.39502850  0.91710889  0.30693776    -0.00500
C3002       C  0.38284242  0.89506897  0.30653090    -0.03100
C3003       C  0.33403775  0.90765252  0.26184862     0.36200
C3004       C  0.41558084  0.91984417  0.32260336     0.39800
C3005       C  0.35902356  0.95195442  0.26148681     0.38900
C3006       C  0.39144918  0.87522231  0.32085809     0.35800
C3007       C  0.38111884  0.85765477  0.25880557     0.36500
C3008       C  0.29819466  0.83422707  0.31366741     0.39800
N3009       N  0.35275955  0.96678885  0.24848263    -0.38300
N3010       N  0.31773156  0.90466307  0.24942164    -0.39900
N3011       N  0.43206361  0.92197356  0.33498391    -0.37600
N3012       N  0.39838045  0.85935223  0.33218661    -0.40000
N3013       N  0.31482868  0.89224457  0.33479616    -0.39800
N3014       N  0.28144954  0.82977412  0.32491899    -0.37400
N3015       N  0.36468873  0.80157444  0.23557602    -0.38500
N3016       N  0.39786745  0.86251010  0.24773818    -0.40100
C3017       C  0.26421065  0.08933527  0.20066134    -0.05100
C3018       C  0.25670040  0.08971419  0.17660804     0.09100
C3019       C  0.25415292  0.11167707  0.16463420    -0.02400
C3020       C  0.25864828  0.13330950  0.17675453    -0.00700
C3021       C  0.26617081  0.13318304  0.20107398    -0.04300
C3022       C  0.26925737  0.11086085  0.21278179     0.02700
C3023       C  0.25033944  0.06696620  0.16413477     0.09500
C3024       C  0.24627303  0.11195749  0.13986524     0.35400
C3025       C  0.27791797  0.10972152  0.23723963     0.38900
C3026       C  0.22621281  0.05966965  0.16289154    -0.04700
C3027       C  0.22003704  0.03832584  0.15102240     0.02500
C3028       C  0.23794087  0.02439772  0.14009087    -0.04300
C3029       C  0.26210012  0.03152081  0.14158848    -0.00500
C3030       C  0.26830034  0.05275570  0.15360458    -0.03100
C3031       C  0.20782051  0.07421052  0.17392367     0.36200
C3032       C  0.28056104  0.01701011  0.13060530     0.39800
C3033       C  0.19539386  0.03035495  0.15061449     0.38900
C3034       C  0.29312915  0.06004784  0.15504840     0.35800
C3035       C  0.26609338  0.06667569  0.21311120     0.36500
C3036       C  0.25453909  0.15554268  0.16410188     0.39800
N3037       N  0.17574324  0.02391946  0.15050214    -0.38300
N3038       N  0.19330412  0.08599830  0.18273613    -0.39900
N3039       N  0.29522576  0.00536885  0.12184966    -0.37600
N3040       N  0.31297791  0.06575161  0.15619271    -0.40000
N3041       N  0.23990190  0.11213918  0.12015509    -0.39800
N3042       N  0.25127456  0.17300035  0.15352740    -0.37400
N3043       N  0.28471668  0.10857077  0.25677118    -0.38500
N3044       N  0.26740924  0.04856847  0.22299300    -0.40100
C3045       C  0.26611272  0.90534400  0.14503270    -0.05100
C3046       C  0.24780725  0.89342230  0.15752476     0.09100
C3047       C  0.22457841  0.90321604  0.15831368    -0.02400
C3048       C  0.21969477  0.92500133  0.14673095    -0.00700
C3049       C  0.23813797  0.93721642  0.13478079    -0.04300
C3050       C  0.26129335  0.92727835  0.13369019     0.02700
C3051       C  0.25311323  0.87058129  0.17009972     0.09500
C3052       C  0.20586200  0.89101364  0.17135450     0.35400
C3053       C  0.28010824  0.93956545  0.12085707     0.38900
C3054       C  0.26243433  0.87096977  0.19350228    -0.04700
C3055       C  0.26781075  0.84944542  0.20536395     0.02500
C3056       C  0.26307571  0.82724758  0.19415772    -0.04300
C3057       C  0.25411434  0.82704177  0.17035490    -0.00500
C3058       C  0.24923623  0.84867446  0.15843053    -0.03100
C3059       C  0.26634875  0.89365244  0.20539491     0.36200
C3060       C  0.24964904  0.80477402  0.15789452     0.39800
C3061       C  0.27904891  0.85036193  0.22876512     0.38900
C3062       C  0.24014605  0.84849075  0.13408000     0.35800
C3063       C  0.28990521  0.89504160  0.14406736     0.36500
C3064       C  0.19570765  0.93488645  0.14699223     0.39800
N3065       N  0.28809353  0.85131818  0.24737460    -0.38300
N3066       N  0.26935205  0.91178341  0.21483376    -0.39900
N3067       N  0.24631458  0.78724894  0.14747146    -0.37600
N3068       N  0.23293372  0.84838103  0.11465865    -0.40000
N3069       N  0.19097210  0.88128128  0.18183290    -0.39800
N3070       N  0.17659485  0.94282668  0.14700350    -0.37400
N3071       N  0.29518069  0.94922478  0.11056704    -0.38500
N3072       N  0.30884736  0.88673259  0.14338746    -0.40100
C3073       C  0.68911792  0.10130076  0.71326037    -0.05100
C3074       C  0.70199548  0.08360459  0.70089294     0.09100
C3075       C  0.72522404  0.08845902  0.69270203    -0.02400
C3076       C  0.73632843  0.11032149  0.69840931    -0.00700
C3077       C  0.72407842  0.12778475  0.71227379    -0.04300
C3078       C  0.69989237  0.12341044  0.71869446     0.02700
C3079       C  0.69143490  0.05935637  0.69758054     0.09500
C3080       C  0.73781044  0.07070264  0.67860606     0.35400
C3081       C  0.68597688  0.14113465  0.73147731     0.38900
C3082       C  0.67967642  0.05336034  0.67607284    -0.04700
C3083       C  0.66859287  0.03089953  0.67363079     0.02500
C3084       C  0.66985676  0.01410049  0.69246299    -0.04300
C3085       C  0.68225910  0.01988941  0.71371584    -0.00500
C3086       C  0.69266521  0.04260949  0.71640293    -0.03100
C3087       C  0.67864274  0.07052746  0.65668316     0.36200
C3088       C  0.68332527  0.00290154  0.73329391     0.39800
C3089       C  0.65585880  0.02509124  0.65175258     0.38900
C3090       C  0.70385925  0.04916096  0.73889572     0.35800
C3091       C  0.66480915  0.09641971  0.72083492     0.36500
C3092       C  0.76047467  0.11445714  0.68995105     0.39800
N3093       N  0.64558945  0.02048691  0.63435819    -0.38300
N3094       N  0.67792187  0.08425278  0.64122833    -0.39900
N3095       N  0.68415734  0.98927839  0.74883709    -0.37600
N3096       N  0.71248997  0.05455288  0.75692991    -0.40000
N3097       N  0.74775364  0.05661761  0.66720889    -0.39800
N3098       N  0.77981115  0.11733603  0.68326199    -0.37400
N3099       N  0.67460757  0.15522238  0.74145636    -0.38500
N3100       N  0.64545812  0.09239226  0.72686569    -0.40100
C3101       C  0.69641651  0.89666048  0.68203804    -0.05100
C3102       C  0.69175087  0.88209326  0.70205031     0.09100
C3103       C  0.67519006  0.88964618  0.71947420    -0.02400
C3104       C  0.66325965  0.91171194  0.71682921    -0.00700
C3105       C  0.66794071  0.92630466  0.69676623    -0.04300
C3106       C  0.68470979  0.91880475  0.67950478     0.02700
C3107       C  0.70529039  0.85931182  0.70533965     0.09500
C3108       C  0.67070673  0.87476730  0.74021905     0.35400
C3109       C  0.68977815  0.93382120  0.65900740     0.38900
C3110       C  0.72688546  0.85936119  0.71831675    -0.04700
C3111       C  0.74002359  0.83806402  0.72130216     0.02500
C3112       C  0.73119202  0.81617908  0.71185126    -0.04300
C3113       C  0.71009820  0.81661825  0.69767941    -0.00500
C3114       C  0.69710602  0.83803760  0.69472201    -0.03100
C3115       C  0.73552105  0.88151132  0.72868942     0.36200
C3116       C  0.70231167  0.79536573  0.68504193     0.39800
C3117       C  0.76272149  0.83920717  0.73389258     0.38900
C3118       C  0.67524743  0.83827642  0.68069960     0.35800
C3119       C  0.71336220  0.88880596  0.66409765     0.36500
C3120       C  0.64694801  0.91985184  0.73523358     0.39800
N3121       N  0.78098141  0.84067516  0.74357254    -0.38300
N3122       N  0.74230217  0.89919185  0.73696231    -0.39900
N3123       N  0.69622100  0.77846321  0.67481759    -0.37600
N3124       N  0.65780141  0.83851190  0.66952054    -0.40000
N3125       N  0.66722848  0.86283557  0.75674212    -0.39800
N3126       N  0.63404868  0.92640207  0.74999269    -0.37400
N3127       N  0.69383884  0.94591835  0.64274811    -0.38500
N3128       N  0.72683625  0.88243310  0.64978694    -0.40100
C3129       C  0.80803085  0.03970754  0.84233495    -0.05100
C3130       C  0.78564071  0.05122071  0.84357144     0.09100
C3131       C  0.76688061  0.04110915  0.85695907    -0.02400
C3132       C  0.77059958  0.01944150  0.86919488    -0.00700
C3133       C  0.79328481  0.00846443  0.86865639    -0.04300
C3134       C  0.81199824  0.01858603  0.85526182     0.02700
C3135       C  0.78245369  0.07458417  0.83142198     0.09500
C3136       C  0.74393385  0.05311297  0.85823855     0.35400
C3137       C  0.83545019  0.00746843  0.85514554     0.38900
C3138       C  0.77329431  0.07554535  0.80798165    -0.04700
C3139       C  0.77307727  0.09734960  0.79542151     0.02500
C3140       C  0.78163753  0.11843413  0.80655429    -0.04300
C3141       C  0.79012635  0.11735717  0.83045886    -0.00500
C3142       C  0.79063872  0.09546967  0.84272247    -0.03100
C3143       C  0.76437254  0.05392652  0.79680135     0.36200
C3144       C  0.79912815  0.13851989  0.84242795     0.39800
C3145       C  0.76376430  0.09786007  0.77120449     0.38900
C3146       C  0.80013743  0.09425418  0.86689138     0.35800
C3147       C  0.82693830  0.04968817  0.82771252     0.36500
C3148       C  0.75108985  0.00819952  0.88196159     0.39800
N3149       N  0.75640061  0.09778205  0.75185228    -0.38300
N3150       N  0.75721966  0.03660655  0.78808712    -0.39900
N3151       N  0.80613663  0.15529051  0.85225764    -0.37600
N3152       N  0.80779527  0.09326032  0.88611566    -0.40000
N3153       N  0.72564825  0.06274503  0.85929132    -0.39800
N3154       N  0.73551446  0.99905962  0.89198100    -0.37400
N3155       N  0.85416174  0.99862471  0.85516363    -0.38500
N3156       N  0.84188102  0.05767401  0.81590521    -0.40100
C3157       C  0.77441417  0.85158723  0.81524694    -0.05100
C3158       C  0.79668759  0.85701559  0.82582872     0.09100
C3159       C  0.81615219  0.84118996  0.82341500    -0.02400
C3160       C  0.81331722  0.81984700  0.81051534    -0.00700
C3161       C  0.79110233  0.81452112  0.79981341    -0.04300
C3162       C  0.77157611  0.83023101  0.80234254     0.02700
C3163       C  0.79946650  0.87917945  0.84014715     0.09500
C3164       C  0.83902153  0.84688714  0.83429227     0.35400
C3165       C  0.74861301  0.82433234  0.79172451     0.38900
C3166       C  0.79439032  0.87887586  0.86475288    -0.04700
C3167       C  0.79631171  0.89994055  0.87834437     0.02500
C3168       C  0.80333802  0.92163889  0.86726487    -0.04300
C3169       C  0.80936652  0.92144480  0.84255317    -0.00500
C3170       C  0.80720712  0.90031487  0.82910688    -0.03100
C3171       C  0.78690884  0.85676375  0.87600739     0.36200
C3172       C  0.81837668  0.94267787  0.83074895     0.39800
C3173       C  0.79047530  0.89892131  0.90357066     0.38900
C3174       C  0.81286034  0.90023731  0.80377732     0.35800
C3175       C  0.75447866  0.86798422  0.81769292     0.36500
C3176       C  0.83303849  0.80307601  0.80873545     0.39800
N3177       N  0.78597257  0.89752452  0.92370263    -0.38300
N3178       N  0.78095254  0.83912652  0.88494477    -0.39900
N3179       N  0.82548659  0.95947822  0.82106640    -0.37600
N3180       N  0.81734856  0.90012883  0.78358898    -0.40000
N3181       N  0.85727407  0.85146657  0.84293350    -0.39800
N3182       N  0.84873522  0.78966971  0.80738415    -0.37400
N3183       N  0.73033881  0.81956564  0.78322548    -0.38500
N3184       N  0.73857726  0.88107572  0.81961756    -0.40100
C3185       C  0.30235606  0.30897657  0.07391871    -0.05100
C3186       C  0.32105976  0.31134460  0.09067922     0.09100
C3187       C  0.34155686  0.32480238  0.08507256    -0.02400
C3188       C  0.34279300  0.33695774  0.06308479    -0.00700
C3189       C  0.32365915  0.33526473  0.04670013    -0.04300
C3190       C  0.30363942  0.32095109  0.05192204     0.02700
C3191       C  0.31827210  0.30086604  0.11487258     0.09500
C3192       C  0.36120007  0.32612388  0.10201121     0.35400
C3193       C  0.28398988  0.31921903  0.03499177     0.38900
C3194       C  0.32508129  0.27711219  0.11919035    -0.04700
C3195       C  0.32136595  0.26689068  0.14185872     0.02500
C3196       C  0.30929861  0.28000424  0.15995921    -0.04300
C3197       C  0.30201752  0.30384440  0.15513293    -0.00500
C3198       C  0.30725395  0.31439052  0.13293763    -0.03100
C3199       C  0.33518327  0.26298729  0.09993874     0.36200
C3200       C  0.28758637  0.31719861  0.17203761     0.39800
C3201       C  0.33011401  0.24287310  0.14622145     0.38900
C3202       C  0.30063817  0.33904834  0.12828250     0.35800
C3203       C  0.28164886  0.29449422  0.07954697     0.36500
C3204       C  0.36364244  0.35116991  0.05731466     0.39800
N3205       N  0.33712834  0.22368254  0.14938472    -0.38300
N3206       N  0.34293249  0.25171033  0.08444888    -0.39900
N3207       N  0.27586451  0.32803736  0.18516357    -0.37600
N3208       N  0.29552131  0.35871258  0.12448232    -0.40000
N3209       N  0.37686288  0.32697663  0.11555728    -0.39800
N3210       N  0.38030392  0.36248577  0.05273164    -0.37400
N3211       N  0.26836238  0.31785173  0.02144772    -0.38500
N3212       N  0.26519812  0.28286827  0.08407423    -0.40100
C3213       C  0.29941459  0.30294091  0.87922861    -0.05100
C3214       C  0.32226049  0.30248102  0.88991569     0.09100
C3215       C  0.34111580  0.28986601  0.87894546    -0.02400
C3216       C  0.33729638  0.27832053  0.85685880    -0.00700
C3217       C  0.31457808  0.27933192  0.84587177    -0.04300
C3218       C  0.29553639  0.29121505  0.85735683     0.02700
C3219       C  0.32568100  0.31357035  0.91385609     0.09500
C3220       C  0.36398336  0.28779305  0.89106270     0.35400
C3221       C  0.27153439  0.28992403  0.84757220     0.38900
C3222       C  0.31894697  0.30083858  0.93442106    -0.04700
C3223       C  0.31984226  0.31186404  0.95701395     0.02500
C3224       C  0.32740194  0.33603004  0.95913740    -0.04300
C3225       C  0.33586087  0.34803616  0.93848055    -0.00500
C3226       C  0.33448674  0.33699220  0.91588973    -0.03100
C3227       C  0.31029979  0.27649777  0.93208328     0.36200
C3228       C  0.34679889  0.37144137  0.94039498     0.39800
C3229       C  0.31256823  0.29800636  0.97766588     0.38900
C3230       C  0.34152203  0.34995232  0.89459057     0.35800
C3231       C  0.27960779  0.31436855  0.89147343     0.36500
C3232       C  0.35642212  0.26476306  0.84583096     0.39800
N3233       N  0.30703107  0.28638715  0.99383625    -0.38300
N3234       N  0.30331395  0.25716830  0.93006409    -0.39900
N3235       N  0.35561248  0.39005519  0.94198038    -0.37600
N3236       N  0.34703798  0.36038158  0.87762265    -0.40000
N3237       N  0.38209161  0.28600026  0.90097690    -0.39800
N3238       N  0.37162036  0.25380811  0.83708829    -0.37400
N3239       N  0.25229096  0.28878772  0.84004162    -0.38500
N3240       N  0.26381094  0.32322660  0.90143775    -0.40100
C3241       C  0.20904513  0.23019635  0.12034893    -0.05100
C3242       C  0.19385123  0.21016091  0.11882234     0.09100
C3243       C  0.19012083  0.19562829  0.13904015    -0.02400
C3244       C  0.20138483  0.20122816  0.16084179    -0.00700
C3245       C  0.21714546  0.22081161  0.16217901    -0.04300
C3246       C  0.22111261  0.23523316  0.14189925     0.02700
C3247       C  0.18162866  0.20446501  0.09584120     0.09500
C3248       C  0.17520179  0.17456849  0.13717157     0.35400
C3249       C  0.23771755  0.25507557  0.14317659     0.38900
C3250       C  0.19202621  0.18816340  0.07971862    -0.04700
C3251       C  0.18097195  0.18365604  0.05751062     0.02500
C3252       C  0.15949703  0.19548691  0.05135958    -0.04300
C3253       C  0.14864488  0.21113933  0.06798068    -0.00500
C3254       C  0.15969875  0.21553179  0.09020387    -0.03100
C3255       C  0.21393457  0.17582770  0.08618335     0.36200
C3256       C  0.12643655  0.22324063  0.06209116     0.39800
C3257       C  0.19120807  0.16617699  0.04135954     0.38900
C3258       C  0.14853389  0.23134738  0.10743884     0.35800
C3259       C  0.21225337  0.24549057  0.09967576     0.36500
C3260       C  0.19771209  0.18616698  0.18162958     0.39800
N3261       N  0.19921449  0.15214411  0.02847330    -0.38300
N3262       N  0.23132346  0.16588022  0.09143573    -0.39900
N3263       N  0.10868654  0.23288555  0.05752029    -0.37600
N3264       N  0.13970542  0.24383274  0.12134243    -0.40000
N3265       N  0.16348829  0.15763582  0.13557721    -0.39800
N3266       N  0.19491423  0.17416876  0.19822701    -0.37400
N3267       N  0.25101673  0.27085315  0.14411644    -0.38500
N3268       N  0.21455989  0.25769844  0.08315013    -0.40100
C3269       C  0.19677168  0.21979610  0.94191995    -0.05100
C3270       C  0.19005677  0.20873822  0.92036543     0.09100
C3271       C  0.17067678  0.19280524  0.91984675    -0.02400
C3272       C  0.15839408  0.18720905  0.94105418    -0.00700
C3273       C  0.16478721  0.19842232  0.96302677    -0.04300
C3274       C  0.18398076  0.21510341  0.96309774     0.02700
C3275       C  0.20406758  0.21299221  0.89817107     0.09500
C3276       C  0.16343172  0.18211872  0.89728720     0.35400
C3277       C  0.19036784  0.22822940  0.98455318     0.38900
C3278       C  0.22261730  0.19718993  0.89209292    -0.04700
C3279       C  0.23494716  0.19998340  0.87039005     0.02500
C3280       C  0.22889444  0.21892467  0.85453635    -0.04300
C3281       C  0.21059372  0.23521107  0.86120738    -0.00500
C3282       C  0.19825196  0.23214771  0.88294055    -0.03100
C3283       C  0.22887741  0.17784812  0.90825691     0.36200
C3284       C  0.20449250  0.25539745  0.84608618     0.39800
C3285       C  0.25336946  0.18271997  0.86445036     0.38900
C3286       C  0.17944666  0.24865435  0.88973426     0.35800
C3287       C  0.21697060  0.23604762  0.94217018     0.36500
C3288       C  0.13964379  0.16934262  0.93992929     0.39800
N3289       N  0.26813609  0.16887921  0.86022021    -0.38300
N3290       N  0.23389433  0.16247935  0.92116954    -0.39900
N3291       N  0.19937682  0.27149697  0.83413232    -0.37600
N3292       N  0.16448410  0.26180543  0.89527610    -0.40000
N3293       N  0.15762667  0.17375288  0.87926237    -0.39800
N3294       N  0.12466304  0.15514685  0.93885247    -0.37400
N3295       N  0.19558977  0.23881682  0.00155497    -0.38500
N3296       N  0.23312146  0.24893633  0.94223883    -0.40100
C3297       C  0.74288220  0.63553673  0.12581856    -0.05100
C3298       C  0.73118111  0.64767474  0.10707528     0.09100
C3299       C  0.72236503  0.67091833  0.11091303    -0.02400
C3300       C  0.72621395  0.68247908  0.13304987    -0.00700
C3301       C  0.73941377  0.67099917  0.15152694    -0.04300
C3302       C  0.74709689  0.64705315  0.14788719     0.02700
C3303       C  0.72879767  0.63607413  0.08303707     0.09500
C3304       C  0.70952458  0.68301999  0.09185553     0.35400
C3305       C  0.76008516  0.63417082  0.16633182     0.38900
C3306       C  0.70750060  0.62420897  0.07660535    -0.04700
C3307       C  0.70571636  0.61244946  0.05434821     0.02500
C3308       C  0.72528267  0.61237798  0.03840966    -0.04300
C3309       C  0.74659712  0.62431702  0.04486215    -0.00500
C3310       C  0.74824401  0.63632336  0.06699746    -0.03100
C3311       C  0.68749333  0.62399153  0.09302485     0.36200
C3312       C  0.76726603  0.62325663  0.02928668     0.39800
C3313       C  0.68360065  0.60066490  0.04769800     0.38900
C3314       C  0.77002267  0.64885644  0.07342398     0.35800
C3315       C  0.75085765  0.61113084  0.12219092     0.36500
C3316       C  0.71619053  0.70609332  0.13671708     0.39800
N3317       N  0.66598207  0.59126004  0.04230931    -0.38300
N3318       N  0.67152920  0.62387921  0.10613584    -0.39900
N3319       N  0.78380876  0.62226782  0.01694456    -0.37600
N3320       N  0.78734051  0.65892001  0.07859133    -0.40000
N3321       N  0.69923476  0.69257614  0.07662189    -0.39800
N3322       N  0.70812715  0.72492812  0.13945300    -0.37400
N3323       N  0.77030123  0.62351265  0.18086418    -0.38500
N3324       N  0.75715568  0.59166520  0.11927562    -0.40100
C3325       C  0.74749502  0.60810717  0.90910799    -0.05100
C3326       C  0.73854580  0.63121884  0.90452660     0.09100
C3327       C  0.72574619  0.64330491  0.92257025    -0.02400
C3328       C  0.72207494  0.63245938  0.94512302    -0.00700
C3329       C  0.73119289  0.60924785  0.94988795    -0.04300
C3330       C  0.74414518  0.59729537  0.93165272     0.02700
C3331       C  0.74326470  0.64301312  0.88084089     0.09500
C3332       C  0.71622290  0.66694965  0.91781067     0.35400
C3333       C  0.75499532  0.57417178  0.93618565     0.38900
C3334       C  0.72491985  0.64502586  0.86349120    -0.04700
C3335       C  0.72959309  0.65580095  0.84111406     0.02500
C3336       C  0.75254437  0.66492618  0.83607778    -0.04300
C3337       C  0.77116544  0.66177915  0.85291058    -0.00500
C3338       C  0.76644978  0.65134981  0.87537667    -0.03100
C3339       C  0.70123079  0.63599769  0.86872495     0.36200
C3340       C  0.79551220  0.66791427  0.84652129     0.39800
C3341       C  0.71090229  0.65722227  0.82313383     0.38900
C3342       C  0.78548697  0.64918185  0.89293680     0.35800
C3343       C  0.76020726  0.59536128  0.89045916     0.36500
C3344       C  0.70850470  0.64523085  0.96313266     0.39800
N3345       N  0.69609650  0.65814397  0.80865369    -0.38300
N3346       N  0.68230978  0.62890417  0.87304577    -0.39900
N3347       N  0.81500639  0.67242307  0.84134560    -0.37600
N3348       N  0.80064303  0.64737067  0.90696279    -0.40000
N3349       N  0.70848110  0.68571916  0.91388106    -0.39800
N3350       N  0.69779049  0.65557504  0.97746948    -0.37400
N3351       N  0.76363552  0.55573590  0.93983005    -0.38500
N3352       N  0.77038142  0.58521326  0.87560753    -0.40100
C3353       C  0.86643202  0.77246133  0.07224044    -0.05100
C3354       C  0.86798784  0.74856411  0.08013987     0.09100
C3355       C  0.87964480  0.73137898  0.06587315    -0.02400
C3356       C  0.88953764  0.73804094  0.04371603    -0.00700
C3357       C  0.88821695  0.76200692  0.03602793    -0.04300
C3358       C  0.87665284  0.77919121  0.05026119     0.02700
C3359       C  0.85668658  0.74139605  0.10322463     0.09500
C3360       C  0.88184298  0.70698308  0.07428041     0.35400
C3361       C  0.87540843  0.80378772  0.04223119     0.38900
C3362       C  0.83378022  0.73101263  0.10315703    -0.04700
C3363       C  0.82237921  0.72547795  0.12490820     0.02500
C3364       C  0.83366020  0.73069313  0.14703983    -0.04300
C3365       C  0.85737548  0.73971354  0.14692281    -0.00500
C3366       C  0.86869988  0.74521071  0.12507211    -0.03100
C3367       C  0.82183820  0.72633595  0.08055853     0.36200
C3368       C  0.87021166  0.74385321  0.16910849     0.39800
C3369       C  0.79934525  0.71364819  0.12431245     0.38900
C3370       C  0.89263919  0.75517961  0.12499053     0.35800
C3371       C  0.85448309  0.79013315  0.08686553     0.36500
C3372       C  0.90143377  0.72034562  0.02898373     0.39800
N3373       N  0.78106785  0.70404246  0.12350053    -0.38300
N3374       N  0.81246409  0.72263526  0.06245894    -0.39900
N3375       N  0.88091013  0.74696274  0.18657406    -0.37600
N3376       N  0.91170465  0.76317762  0.12488152    -0.40000
N3377       N  0.88365854  0.68755357  0.08108213    -0.39800
N3378       N  0.91089752  0.70624912  0.01719878    -0.37400
N3379       N  0.87449034  0.82335295  0.03564852    -0.38500
N3380       N  0.84500186  0.80424902  0.09858553    -0.40100
C3381       C  0.87769288  0.74226109  0.85942884    -0.05100
C3382       C  0.86545475  0.74210169  0.88142186     0.09100
C3383       C  0.84124764  0.73528257  0.88206102    -0.02400
C3384       C  0.82887889  0.72990612  0.86075442    -0.00700
C3385       C  0.84093784  0.73016136  0.83833397    -0.04300
C3386       C  0.86563672  0.73616672  0.83800232     0.02700
C3387       C  0.87744518  0.75038560  0.90394719     0.09500
C3388       C  0.82886546  0.73418757  0.90484329     0.35400
C3389       C  0.87857365  0.73768976  0.81562787     0.38900
C3390       C  0.87071802  0.77243134  0.91427039    -0.04700
C3391       C  0.87965218  0.77905636  0.93692874     0.02500
C3392       C  0.89635139  0.76429803  0.94876382    -0.04300
C3393       C  0.90387365  0.74277375  0.93802573    -0.00500
C3394       C  0.89422412  0.73567097  0.91581498    -0.03100
C3395       C  0.85448620  0.78820943  0.90151633     0.36200
C3396       C  0.92088004  0.72749864  0.95037200     0.39800
C3397       C  0.87131143  0.80079575  0.94825664     0.38900
C3398       C  0.90116417  0.71299239  0.90543929     0.35800
C3399       C  0.90261755  0.74940155  0.85884375     0.36500
C3400       C  0.80347591  0.72479878  0.86234402     0.39800
N3401       N  0.86442852  0.81803960  0.95732928    -0.38300
N3402       N  0.84159079  0.80070310  0.89118122    -0.39900
N3403       N  0.93442107  0.71544234  0.96039224    -0.37600
N3404       N  0.90681299  0.69492647  0.89715534    -0.40000
N3405       N  0.81895858  0.73337067  0.92296111    -0.39800
N3406       N  0.78316473  0.72119729  0.86387979    -0.37400
N3407       N  0.88923190  0.73908037  0.79798614    -0.38500
N3408       N  0.92251808  0.75501724  0.85853198    -0.40100
C3409       C  0.50440214  0.95622748  0.69648624    -0.05100
C3410       C  0.51650588  0.97272195  0.68188534     0.09100
C3411       C  0.50338067  0.98940102  0.66826437    -0.02400
C3412       C  0.47814354  0.98955172  0.66918167    -0.00700
C3413       C  0.46591691  0.97351192  0.68445907    -0.04300
C3414       C  0.47931565  0.95706341  0.69836581     0.02700
C3415       C  0.54320123  0.97345955  0.68232500     0.09500
C3416       C  0.51597543  0.00658810  0.65356542     0.35400
C3417       C  0.46755500  0.94189440  0.71576441     0.38900
C3418       C  0.55665689  0.96200841  0.66435041    -0.04700
C3419       C  0.58184615  0.96163060  0.66579587     0.02500
C3420       C  0.59355303  0.97211126  0.68556106    -0.04300
C3421       C  0.58009003  0.98395144  0.70328133    -0.00500
C3422       C  0.55500586  0.98492656  0.70145973    -0.03100
C3423       C  0.54454742  0.95059521  0.64446160     0.36200
C3424       C  0.59201951  0.99460113  0.72374377     0.39800
C3425       C  0.59577838  0.95128438  0.64656441     0.38900
C3426       C  0.54125114  0.99782170  0.71922799     0.35800
C3427       C  0.51789995  0.93843331  0.70973905     0.36500
C3428       C  0.46490001  0.00595421  0.65403940     0.39800
N3429       N  0.60698445  0.94330126  0.63114234    -0.38300
N3430       N  0.53487556  0.94150604  0.62857398    -0.39900
N3431       N  0.60160737  0.00301440  0.74005406    -0.37600
N3432       N  0.53024724  0.00822958  0.73328582    -0.40000
N3433       N  0.52615567  0.02028232  0.64193503    -0.39800
N3434       N  0.45444399  0.01906373  0.64188061    -0.37400
N3435       N  0.45819241  0.92996556  0.72978976    -0.38500
N3436       N  0.52867689  0.92415102  0.72015904    -0.40100
C3437       C  0.35925404  0.04669149  0.68567562    -0.05100
C3438       C  0.36533456  0.06010199  0.70618396     0.09100
C3439       C  0.38345199  0.05181933  0.72170289    -0.02400
C3440       C  0.39587256  0.03055346  0.71647242    -0.00700
C3441       C  0.39011354  0.01728502  0.69574849    -0.04300
C3442       C  0.37155429  0.02526626  0.68050698     0.02700
C3443       C  0.35291026  0.08320799  0.71141501     0.09500
C3444       C  0.38910078  0.06514807  0.74322168     0.35400
C3445       C  0.36547601  0.01171480  0.65924959     0.38900
C3446       C  0.33277877  0.08363050  0.72640481    -0.04700
C3447       C  0.32128430  0.10544395  0.73171629     0.02500
C3448       C  0.33028563  0.12742662  0.72250045    -0.04300
C3449       C  0.35073752  0.12670589  0.70748679    -0.00500
C3450       C  0.36186186  0.10472020  0.70201601    -0.03100
C3451       C  0.32422179  0.06149927  0.73684896     0.36200
C3452       C  0.36028107  0.14839753  0.69706863     0.39800
C3453       C  0.30032435  0.10472387  0.74693505     0.38900
C3454       C  0.38289239  0.10414106  0.68690790     0.35800
C3455       C  0.34031868  0.05499632  0.66995401     0.36500
C3456       C  0.41409979  0.02192297  0.73286433     0.39800
N3457       N  0.28346191  0.10349443  0.75880740    -0.38300
N3458       N  0.31750705  0.04391494  0.74534762    -0.39900
N3459       N  0.36805346  0.16565881  0.68881467    -0.37600
N3460       N  0.39971435  0.10353269  0.67493167    -0.40000
N3461       N  0.39346239  0.07578340  0.76042407    -0.39800
N3462       N  0.42862809  0.01495776  0.74590378    -0.37400
N3463       N  0.36064360  0.00089694  0.64228427    -0.38500
N3464       N  0.32518526  0.06164861  0.65744723    -0.40100
C3465       C  0.38569337  0.88662278  0.68255867    -0.05100
C3466       C  0.36625799  0.88492006  0.69838420     0.09100
C3467       C  0.35840417  0.90530438  0.71082398    -0.02400
C3468       C  0.37034672  0.92727297  0.70803900    -0.00700
C3469       C  0.39000312  0.92926323  0.69210912    -0.04300
C3470       C  0.39765392  0.90858897  0.67948790     0.02700
C3471       C  0.35518095  0.86123798  0.70362869     0.09500
C3472       C  0.33817091  0.90343721  0.72692453     0.35400
C3473       C  0.41801097  0.90953553  0.66349605     0.38900
C3474       C  0.36272037  0.84830420  0.72393638    -0.04700
C3475       C  0.35133433  0.82678925  0.73010279     0.02500
C3476       C  0.33246052  0.81788128  0.71582776    -0.04300
C3477       C  0.32479987  0.83094527  0.69555130    -0.00500
C3478       C  0.33639778  0.85240633  0.68928223    -0.03100
C3479       C  0.38207020  0.85738124  0.73868206     0.36200
C3480       C  0.30496402  0.82245530  0.68115977     0.39800
C3481       C  0.35804245  0.81468893  0.75206770     0.38900
C3482       C  0.32907646  0.86545637  0.66808523     0.35800
C3483       C  0.39347707  0.86557530  0.66959709     0.36500
C3484       C  0.36321345  0.94723228  0.72296056     0.39800
N3485       N  0.36330805  0.80533172  0.76976297    -0.38300
N3486       N  0.39750414  0.86464894  0.75041671    -0.39900
N3487       N  0.28903644  0.81599871  0.66962426    -0.37600
N3488       N  0.32338787  0.87581634  0.65108361    -0.40000
N3489       N  0.32201580  0.90182579  0.73969860    -0.39800
N3490       N  0.35754310  0.96303963  0.73501117    -0.37400
N3491       N  0.43444096  0.91008448  0.65097551    -0.38500
N3492       N  0.39955470  0.84877403  0.65921380    -0.40100
C3493       C  0.20291161  0.98913779  0.97088156    -0.05100
C3494       C  0.21685402  0.97685622  0.98793168     0.09100
C3495       C  0.23534330  0.96149190  0.98036540    -0.02400
C3496       C  0.24063272  0.95925401  0.95586725    -0.00700
C3497       C  0.22743486  0.97248896  0.93874254    -0.04300
C3498       C  0.20832520  0.98717978  0.94634117     0.02700
C3499       C  0.21365342  0.98143880  0.01402136     0.09500
C3500       C  0.24940807  0.94850399  0.99794947     0.35400
C3501       C  0.19420127  0.00028026  0.92892825     0.38900
C3502       C  0.20051343  0.96543374  0.02821337    -0.04700
C3503       C  0.20169755  0.96697962  0.05337419     0.02500
C3504       C  0.21588794  0.98483868  0.06447304    -0.04300
C3505       C  0.22699596  0.00238341  0.04996411    -0.00500
C3506       C  0.22595568  0.00052793  0.02485018    -0.03100
C3507       C  0.18615103  0.94713373  0.01679007     0.36200
C3508       C  0.24080507  0.02160375  0.06054911     0.39800
C3509       C  0.18844482  0.94997658  0.06771949     0.38900
C3510       C  0.23842931  0.01772950  0.01003302     0.35800
C3511       C  0.18310916  0.00387615  0.97870749     0.36500
C3512       C  0.26058913  0.94436343  0.94854905     0.39800
N3513       N  0.17792767  0.93630753  0.07908088    -0.38300
N3514       N  0.17457368  0.93268748  0.00757958    -0.39900
N3515       N  0.25174285  0.03701173  0.06894515    -0.37600
N3516       N  0.24832465  0.03144971  0.99819113    -0.40000
N3517       N  0.26058056  0.93813750  0.01198599    -0.39800
N3518       N  0.27648131  0.93248511  0.94270548    -0.37400
N3519       N  0.18300584  0.01077765  0.91500862    -0.38500
N3520       N  0.16721364  0.01550252  0.98500009    -0.40100
C3521       C  0.26967579  0.05768966  0.87126604    -0.05100
C3522       C  0.26617482  0.06086554  0.84657631     0.09100
C3523       C  0.25786228  0.04184592  0.83238264    -0.02400
C3524       C  0.25236163  0.01969682  0.84299367    -0.00700
C3525       C  0.25530900  0.01643701  0.86802122    -0.04300
C3526       C  0.26431553  0.03562593  0.88202046     0.02700
C3527       C  0.27011238  0.08473770  0.83564977     0.09500
C3528       C  0.25475887  0.04532689  0.80682096     0.35400
C3529       C  0.26859046  0.03283226  0.90748729     0.38900
C3530       C  0.29297433  0.09125182  0.82732184    -0.04700
C3531       C  0.29623995  0.11339258  0.81588109     0.02500
C3532       C  0.27683363  0.12934825  0.81373763    -0.04300
C3533       C  0.25411821  0.12304936  0.82257554    -0.00500
C3534       C  0.25068533  0.10062775  0.83322718    -0.03100
C3535       C  0.31291734  0.07490987  0.83006919     0.36200
C3536       C  0.23418158  0.13955590  0.82037435     0.39800
C3537       C  0.31901903  0.11903072  0.80491532     0.38900
C3538       C  0.22702949  0.09360727  0.84111369     0.35800
C3539       C  0.27879897  0.07729894  0.88558837     0.36500
C3540       C  0.24286033  0.00074437  0.82807801     0.39800
N3541       N  0.33709059  0.12329949  0.79585044    -0.38300
N3542       N  0.32882544  0.06187121  0.83236810    -0.39900
N3543       N  0.21834613  0.15277983  0.81877399    -0.37600
N3544       N  0.20810914  0.08795331  0.84719216    -0.40000
N3545       N  0.25238400  0.04831957  0.78647034    -0.39800
N3546       N  0.23534672  0.98574613  0.81598221    -0.37400
N3547       N  0.27187788  0.03074501  0.92782789    -0.38500
N3548       N  0.28615570  0.09295282  0.89691288    -0.40100
C3549       C  0.28525803  0.89925130  0.85612574    -0.05100
C3550       C  0.26700226  0.88392319  0.84795839     0.09100
C3551       C  0.24280839  0.89068562  0.85027987    -0.02400
C3552       C  0.23686277  0.91271631  0.86079858    -0.00700
C3553       C  0.25512732  0.92828702  0.86847408    -0.04300
C3554       C  0.27932996  0.92150926  0.86621981     0.02700
C3555       C  0.27309122  0.86110320  0.83570810     0.09500
C3556       C  0.22410328  0.87507572  0.84140689     0.35400
C3557       C  0.29807249  0.93720448  0.87484331     0.38900
C3558       C  0.27060371  0.83917805  0.84776415    -0.04700
C3559       C  0.27344329  0.81751980  0.83525559     0.02500
C3560       C  0.27908880  0.81772663  0.81050830    -0.04300
C3561       C  0.28302475  0.83992869  0.79895611    -0.00500
C3562       C  0.27980327  0.86145931  0.81148623    -0.03100
C3563       C  0.26464376  0.83898950  0.87300571     0.36200
C3564       C  0.29065457  0.84096874  0.77420848     0.39800
C3565       C  0.26934507  0.79523033  0.84782078     0.38900
C3566       C  0.28290583  0.88414013  0.79931549     0.35800
C3567       C  0.31008485  0.89203759  0.85412178     0.36500
C3568       C  0.21196988  0.91951060  0.86342197     0.39800
N3569       N  0.26607026  0.77758425  0.85805228    -0.38300
N3570       N  0.25991686  0.83882076  0.89313780    -0.39900
N3571       N  0.29664654  0.84232864  0.75447712    -0.37600
N3572       N  0.28541865  0.90224853  0.78969582    -0.40000
N3573       N  0.20933027  0.86251282  0.83423596    -0.39800
N3574       N  0.19210211  0.92487288  0.86556329    -0.37400
N3575       N  0.31295976  0.94976555  0.88178754    -0.38500
N3576       N  0.32987539  0.88622542  0.85248311    -0.40100
C3577       C  0.50308182  0.95953648  0.28077414    -0.05100
C3578       C  0.51587732  0.97659243  0.29415061     0.09100
C3579       C  0.50337914  0.99403405  0.30725255    -0.02400
C3580       C  0.47815797  0.99480314  0.30664692    -0.00700
C3581       C  0.46506798  0.97817439  0.29261165    -0.04300
C3582       C  0.47783923  0.96031590  0.27985642     0.02700
C3583       C  0.54264076  0.97589326  0.29490005     0.09500
C3584       C  0.51659911  0.01094161  0.32181912     0.35400
C3585       C  0.46527811  0.94281010  0.26542192     0.38900
C3586       C  0.55612022  0.98883024  0.27800766    -0.04700
C3587       C  0.58136519  0.98832854  0.27890721     0.02500
C3588       C  0.59324952  0.97525927  0.29704717    -0.04300
C3589       C  0.57966796  0.96219372  0.31382217    -0.00500
C3590       C  0.55447757  0.96247748  0.31269941    -0.03100
C3591       C  0.54391188  0.00286269  0.25989028     0.36200
C3592       C  0.59158177  0.94905441  0.33278812     0.39800
C3593       C  0.59506574  0.00058285  0.26067863     0.38900
C3594       C  0.54063872  0.94926777  0.33012654     0.35800
C3595       C  0.51603968  0.94095418  0.26818798     0.36500
C3596       C  0.46590004  0.01216888  0.32145774     0.39800
N3597       N  0.60592187  0.01020565  0.24597303    -0.38300
N3598       N  0.53407853  0.01412458  0.24554976    -0.39900
N3599       N  0.60113568  0.93858893  0.34789605    -0.37600
N3600       N  0.52958194  0.93876132  0.34404707    -0.40000
N3601       N  0.52715829  0.02434148  0.33351266    -0.39800
N3602       N  0.45634524  0.02609602  0.33336447    -0.37400
N3603       N  0.45538657  0.92868669  0.25399374    -0.38500
N3604       N  0.52647160  0.92609567  0.25831212    -0.40100
C3605       C  0.69369116  0.10249557  0.28102735    -0.05100
C3606       C  0.69710026  0.09229765  0.30392281     0.09100
C3607       C  0.70911674  0.10551326  0.32182748    -0.02400
C3608       C  0.71851331  0.12831444  0.31648415    -0.00700
C3609       C  0.71654039  0.13761166  0.29310708    -0.04300
C3610       C  0.70324690  0.12511162  0.27570923     0.02700
C3611       C  0.68865529  0.06727526  0.30836557     0.09500
C3612       C  0.71246397  0.09537464  0.34545138     0.35400
C3613       C  0.69983070  0.13530423  0.25209396     0.38900
C3614       C  0.70031014  0.04806017  0.29694776    -0.04700
C3615       C  0.68995851  0.02512027  0.29684659     0.02500
C3616       C  0.66782917  0.02105640  0.30846212    -0.04300
C3617       C  0.65722655  0.03996606  0.32159364    -0.00500
C3618       C  0.66759132  0.06296132  0.32147793    -0.03100
C3619       C  0.72255198  0.05221811  0.28430193     0.36200
C3620       C  0.63563918  0.03588572  0.33533052     0.39800
C3621       C  0.70160208  0.00620244  0.28349728     0.38900
C3622       C  0.65623461  0.08235445  0.33436060     0.35800
C3623       C  0.68109827  0.08923349  0.26259563     0.36500
C3624       C  0.72975100  0.14248561  0.33506908     0.39800
N3625       N  0.71099055  0.99116463  0.27287198    -0.38300
N3626       N  0.74018528  0.05555613  0.27407256    -0.39900
N3627       N  0.61839326  0.03267197  0.34624844    -0.37600
N3628       N  0.64728798  0.09776349  0.34483229    -0.40000
N3629       N  0.71512585  0.08732697  0.36433795    -0.39800
N3630       N  0.73847728  0.15396978  0.34991355    -0.37400
N3631       N  0.69697614  0.14336761  0.23325327    -0.38500
N3632       N  0.67132263  0.07843810  0.24789082    -0.40100
C3633       C  0.68559096  0.89676852  0.32064820    -0.05100
C3634       C  0.69388619  0.88844499  0.29830087     0.09100
C3635       C  0.69091915  0.90289113  0.27775298    -0.02400
C3636       C  0.67937790  0.92521343  0.27944707    -0.00700
C3637       C  0.67044628  0.93315152  0.30161287    -0.04300
C3638       C  0.67396565  0.91913311  0.32229069     0.02700
C3639       C  0.70452703  0.86395465  0.29571206     0.09500
C3640       C  0.69910781  0.89438090  0.25467103     0.35400
C3641       C  0.66548207  0.92774558  0.34520041     0.38900
C3642       C  0.69099493  0.84574734  0.28482782    -0.04700
C3643       C  0.70180458  0.82390158  0.27841498     0.02500
C3644       C  0.72645913  0.81971758  0.28328772    -0.04300
C3645       C  0.73954491  0.83760381  0.29578328    -0.00500
C3646       C  0.72854797  0.85950431  0.30200067    -0.03100
C3647       C  0.66581669  0.84979354  0.27983381     0.36200
C3648       C  0.76439664  0.83381408  0.30231032     0.39800
C3649       C  0.68745332  0.80641451  0.26572630     0.38900
C3650       C  0.74199236  0.87759194  0.31481901     0.35800
C3651       C  0.68837193  0.88203039  0.34177801     0.36500
C3652       C  0.67647540  0.93997244  0.25830825     0.39800
N3653       N  0.67580561  0.79256074  0.25571755    -0.38300
N3654       N  0.64575286  0.85309715  0.27592410    -0.39900
N3655       N  0.78427999  0.83115101  0.30747015    -0.37600
N3656       N  0.75262977  0.89188426  0.32532117    -0.40000
N3657       N  0.70541035  0.88738928  0.23626445    -0.39800
N3658       N  0.67424402  0.95181141  0.24148418    -0.37400
N3659       N  0.65877054  0.93477142  0.36344799    -0.38500
N3660       N  0.69057230  0.87031389  0.35869088    -0.40100
C3661       C  0.83804823  0.97969803  0.97631951    -0.05100
C3662       C  0.82054170  0.97125083  0.99227966     0.09100
C3663       C  0.79972318  0.96006532  0.98346370    -0.02400
C3664       C  0.79612045  0.95788715  0.95866181    -0.00700
C3665       C  0.81346648  0.96664519  0.94266426    -0.04300
C3666       C  0.83450773  0.97741279  0.95149167     0.02700
C3667       C  0.82332259  0.97525413  0.01843063     0.09500
C3668       C  0.78173688  0.95139913  0.99996565     0.35400
C3669       C  0.85238003  0.98631603  0.93501899     0.38900
C3670       C  0.81097355  0.99420881  0.02940378    -0.04700
C3671       C  0.81203717  0.99715257  0.05435165     0.02500
C3672       C  0.82536407  0.98086328  0.06856180    -0.04300
C3673       C  0.83851483  0.96240175  0.05727459    -0.00500
C3674       C  0.83750798  0.95969257  0.03225749    -0.03100
C3675       C  0.79641253  0.01021086  0.01500036     0.36200
C3676       C  0.85294331  0.94596906  0.07130571     0.39800
C3677       C  0.79819459  0.01621716  0.06519628     0.38900
C3678       C  0.85055949  0.94052198  0.02069408     0.35800
C3679       C  0.85940361  0.99117567  0.98553226     0.36500
C3680       C  0.77396900  0.94785395  0.94961582     0.39800
N3681       N  0.78719972  0.03152375  0.07369040    -0.38300
N3682       N  0.78465575  0.02287446  0.00358178    -0.39900
N3683       N  0.86435183  0.93271974  0.08241360    -0.37600
N3684       N  0.86098448  0.92530773  0.01136822    -0.40000
N3685       N  0.76736753  0.94459026  0.01314607    -0.39800
N3686       N  0.75620840  0.94000381  0.94245599    -0.37400
N3687       N  0.86663851  0.99343880  0.92188595    -0.38500
N3688       N  0.87640848  0.00027726  0.99302608    -0.40100
C3689       C  0.77612789  0.05500270  0.14651634    -0.05100
C3690       C  0.79247801  0.06990612  0.15849149     0.09100
C3691       C  0.81652917  0.06271499  0.16138966    -0.02400
C3692       C  0.82421439  0.04058081  0.15221839    -0.00700
C3693       C  0.80761822  0.02532653  0.14101339    -0.04300
C3694       C  0.78352733  0.03245487  0.13837294     0.02700
C3695       C  0.78385277  0.09202139  0.17036154     0.09500
C3696       C  0.83311308  0.07788051  0.17434593     0.35400
C3697       C  0.76625683  0.01633890  0.12765368     0.38900
C3698       C  0.77514982  0.09067136  0.19389247    -0.04700
C3699       C  0.76967838  0.11164113  0.20651836     0.02500
C3700       C  0.77286703  0.13422182  0.19559793    -0.04300
C3701       C  0.77936993  0.13529305  0.17105130    -0.00500
C3702       C  0.78497324  0.11416679  0.15857479    -0.03100
C3703       C  0.77202539  0.06754697  0.20514972     0.36200
C3704       C  0.78102092  0.15791081  0.15852422     0.39800
C3705       C  0.76061497  0.10976060  0.23072892     0.38900
C3706       C  0.79199671  0.11512811  0.13363090     0.35800
C3707       C  0.75167826  0.06286742  0.14278910     0.36500
C3708       C  0.84899275  0.03332278  0.15465913     0.39800
N3709       N  0.75354167  0.10810321  0.25007507    -0.38300
N3710       N  0.76941061  0.04905687  0.21397344    -0.39900
N3711       N  0.78210638  0.17572848  0.14812108    -0.37600
N3712       N  0.79738295  0.11590452  0.11368200    -0.40000
N3713       N  0.84619296  0.08998438  0.18485538    -0.39800
N3714       N  0.86878540  0.02757904  0.15663351    -0.37400
N3715       N  0.75252702  0.00332086  0.11930716    -0.38500
N3716       N  0.73223152  0.06925952  0.13967641    -0.40100
C3717       C  0.78146692  0.90210042  0.14117576    -0.05100
C3718       C  0.79649792  0.89176306  0.15857089     0.09100
C3719       C  0.81573324  0.90492451  0.16825851    -0.02400
C3720       C  0.82031393  0.92822808  0.15999780    -0.00700
C3721       C  0.80614129  0.93797789  0.14153228    -0.04300
C3722       C  0.78646116  0.92504698  0.13240075     0.02700
C3723       C  0.79099830  0.86749549  0.16776950     0.09500
C3724       C  0.83075973  0.89443088  0.18665923     0.35400
C3725       C  0.77110514  0.93551527  0.11422609     0.38900
C3726       C  0.79956185  0.84702581  0.15585040    -0.04700
C3727       C  0.79446433  0.82410954  0.16495749     0.02500
C3728       C  0.78102141  0.82177237  0.18619871    -0.04300
C3729       C  0.77149031  0.84237398  0.19728711    -0.00500
C3730       C  0.77645118  0.86512928  0.18806754    -0.03100
C3731       C  0.81394149  0.84972191  0.13449607     0.36200
C3732       C  0.75630912  0.84031834  0.21811846     0.39800
C3733       C  0.80408616  0.80313949  0.15319000     0.38900
C3734       C  0.76661508  0.88625171  0.19944575     0.35800
C3735       C  0.76061827  0.88919741  0.13270666     0.36500
C3736       C  0.83977471  0.94202566  0.17015833     0.39800
N3737       N  0.81173177  0.78644119  0.14372100    -0.38300
N3738       N  0.82536798  0.85213996  0.11745636    -0.39900
N3739       N  0.74402967  0.83922584  0.23466353    -0.37600
N3740       N  0.75877348  0.90315628  0.20837376    -0.40000
N3741       N  0.84274180  0.88606087  0.20135049    -0.39800
N3742       N  0.85515319  0.95318847  0.17833840    -0.37400
N3743       N  0.75885900  0.94384599  0.09972994    -0.38500
N3744       N  0.74391318  0.87886204  0.12622793    -0.40100
C3745       C  0.69409734  0.44472450  0.00423604    -0.05100
C3746       C  0.71470423  0.45768392  0.99778828     0.09100
C3747       C  0.73593917  0.44538329  0.99201176    -0.02400
C3748       C  0.73674458  0.42026813  0.99320328    -0.00700
C3749       C  0.71605822  0.40726126  0.99933937    -0.04300
C3750       C  0.69464428  0.41953789  0.00456289     0.02700
C3751       C  0.71442312  0.48439353  0.99768221     0.09500
C3752       C  0.75702394  0.45868885  0.98503442     0.35400
C3753       C  0.67301913  0.40626808  0.00964025     0.38900
C3754       C  0.72290851  0.49701217  0.01771241    -0.04700
C3755       C  0.72480715  0.52211629  0.01704366     0.02500
C3756       C  0.71696138  0.53515864  0.99657083    -0.04300
C3757       C  0.70762745  0.52217135  0.97673776    -0.00500
C3758       C  0.70691957  0.49695606  0.97718917    -0.03100
C3759       C  0.73014331  0.48393861  0.03897112     0.36200
C3760       C  0.69843151  0.53442146  0.95576712     0.39800
C3761       C  0.73616228  0.53401149  0.03713710     0.38900
C3762       C  0.69894954  0.48374254  0.95631712     0.35800
C3763       C  0.67249014  0.45736469  0.01090762     0.36500
C3764       C  0.75912360  0.40790545  0.98895686     0.39800
N3765       N  0.74534394  0.54332823  0.05318965    -0.38300
N3766       N  0.73581850  0.47345939  0.05590393    -0.39900
N3767       N  0.69110308  0.54400362  0.93892336    -0.37600
N3768       N  0.69278049  0.47309269  0.93968056    -0.40000
N3769       N  0.77377229  0.46938587  0.97941261    -0.39800
N3770       N  0.77713593  0.39825752  0.98577254    -0.37400
N3771       N  0.65560749  0.39579662  0.01336423    -0.38500
N3772       N  0.65529868  0.46746637  0.01638888    -0.40100
C3773       C  0.71855574  0.28392822  0.12576571    -0.05100
C3774       C  0.72901821  0.30614483  0.12047539     0.09100
C3775       C  0.74112321  0.31885419  0.13856934    -0.02400
C3776       C  0.74412458  0.30869988  0.16150098    -0.00700
C3777       C  0.73537150  0.28539693  0.16632060    -0.04300
C3778       C  0.72128882  0.27378472  0.14867769     0.02700
C3779       C  0.72680837  0.31634530  0.09583845     0.09500
C3780       C  0.75089966  0.34225913  0.13337116     0.35400
C3781       C  0.70897330  0.25166191  0.15416908     0.38900
C3782       C  0.70830574  0.33256444  0.09051969    -0.04700
C3783       C  0.70573926  0.34175388  0.06716796     0.02500
C3784       C  0.72195509  0.33507058  0.04889930    -0.04300
C3785       C  0.74068131  0.31888680  0.05443341    -0.00500
C3786       C  0.74295216  0.30946200  0.07777944    -0.03100
C3787       C  0.69191832  0.33982443  0.10924367     0.36200
C3788       C  0.75834561  0.31271149  0.03653012     0.39800
C3789       C  0.68594128  0.35768388  0.06204325     0.38900
C3790       C  0.76213159  0.29290534  0.08343807     0.35800
C3791       C  0.70522674  0.27133792  0.10740324     0.36500
C3792       C  0.75645885  0.32237004  0.17979035     0.39800
N3793       N  0.66997804  0.37034080  0.05843014    -0.38300
N3794       N  0.67897976  0.34564144  0.12426916    -0.39900
N3795       N  0.77255309  0.30777778  0.02235794    -0.37600
N3796       N  0.77738978  0.27970112  0.08807246    -0.40000
N3797       N  0.75866473  0.36093936  0.12924091    -0.39800
N3798       N  0.76606441  0.33356376  0.19431441    -0.37400
N3799       N  0.69901196  0.23410115  0.15850239    -0.38500
N3800       N  0.69468366  0.26128472  0.09270092    -0.40100
C3801       C  0.73097367  0.30241934  0.87101870    -0.05100
C3802       C  0.73724659  0.29232585  0.89325928     0.09100
C3803       C  0.74761247  0.26938251  0.89392601    -0.02400
C3804       C  0.75263104  0.25695496  0.87250719    -0.00700
C3805       C  0.74677801  0.26719444  0.84987249    -0.04300
C3806       C  0.73482928  0.28964659  0.84957510     0.02700
C3807       C  0.73287765  0.30574097  0.91613827     0.09500
C3808       C  0.75332478  0.25861131  0.91687330     0.35400
C3809       C  0.72545507  0.29944669  0.82740535     0.38900
C3810       C  0.70951046  0.30780524  0.92550094    -0.04700
C3811       C  0.70564067  0.31955666  0.94754580     0.02500
C3812       C  0.72510898  0.32933354  0.96033957    -0.04300
C3813       C  0.74840110  0.32739564  0.95091078    -0.00500
C3814       C  0.75224295  0.31593129  0.92877786    -0.03100
C3815       C  0.68942972  0.29822454  0.91214626     0.36200
C3816       C  0.76847722  0.33723198  0.96406988     0.39800
C3817       C  0.68161942  0.32171996  0.95697564     0.38900
C3818       C  0.77605923  0.31522923  0.91861949     0.35800
C3819       C  0.72092225  0.32629411  0.87018438     0.36500
C3820       C  0.76420898  0.23380306  0.87426264     0.39800
N3821       N  0.66240742  0.32336486  0.96442798    -0.38300
N3822       N  0.67349112  0.29080186  0.90120755    -0.39900
N3823       N  0.78450221  0.34493446  0.97466676    -0.37600
N3824       N  0.79503723  0.31482948  0.91044577    -0.40000
N3825       N  0.75789102  0.25008834  0.93518423    -0.39800
N3826       N  0.77339757  0.21534473  0.87592961    -0.37400
N3827       N  0.71781286  0.30726227  0.80980273    -0.38500
N3828       N  0.71301471  0.34538155  0.86951614    -0.40100
C3829       C  0.04887861  0.18523007  0.98844963    -0.05100
C3830       C  0.03938184  0.16919517  0.00534918     0.09100
C3831       C  0.05476570  0.15518879  0.01956480    -0.02400
C3832       C  0.07968770  0.15814572  0.01778817    -0.00700
C3833       C  0.08922475  0.17576363  0.00239647    -0.04300
C3834       C  0.07375230  0.18841349  0.98679270     0.02700
C3835       C  0.01310075  0.16871769  0.00927089     0.09500
C3836       C  0.04487437  0.13842483  0.03662761     0.35400
C3837       C  0.08310887  0.20540040  0.96961581     0.38900
C3838       C  0.99816292  0.15591748  0.99357731    -0.04700
C3839       C  0.97318758  0.15889328  0.99472926     0.02500
C3840       C  0.96308352  0.17504639  0.01142380    -0.04300
C3841       C  0.97818603  0.18670641  0.02813449    -0.00500
C3842       C  0.00310626  0.18345972  0.02702718    -0.03100
C3843       C  0.00866055  0.14056358  0.97553040     0.36200
C3844       C  0.96851955  0.20348597  0.04537092     0.39800
C3845       C  0.95802501  0.14554099  0.97842560     0.38900
C3846       C  0.01868813  0.19647173  0.04322690     0.35800
C3847       C  0.03288162  0.19939780  0.97364053     0.36500
C3848       C  0.09551054  0.14261579  0.03132563     0.39800
N3849       N  0.94600371  0.13494002  0.96532515    -0.38300
N3850       N  0.01710403  0.12844791  0.96107112    -0.39900
N3851       N  0.96087805  0.21689743  0.05911881    -0.37600
N3852       N  0.03117568  0.20686235  0.05605104    -0.40000
N3853       N  0.03698568  0.12517835  0.05037291    -0.39800
N3854       N  0.10816160  0.13008036  0.04190714    -0.37400
N3855       N  0.09050730  0.21878407  0.95572401    -0.38500
N3856       N  0.02004574  0.21070810  0.96195564    -0.40100
C3857       C  0.86233638  0.18521114  0.08183589    -0.05100
C3858       C  0.86130422  0.20864194  0.09097768     0.09100
C3859       C  0.87350051  0.22730131  0.07934838    -0.02400
C3860       C  0.88624578  0.22264822  0.05819819    -0.00700
C3861       C  0.88746079  0.19916463  0.04918125    -0.04300
C3862       C  0.87561697  0.18043181  0.06105052     0.02700
C3863       C  0.84876964  0.21336508  0.11389422     0.09500
C3864       C  0.87366973  0.25100961  0.08978264     0.35400
C3865       C  0.87735423  0.15623897  0.05197757     0.38900
C3866       C  0.86136526  0.21092423  0.13554740    -0.04700
C3867       C  0.84958711  0.21439907  0.15743753     0.02500
C3868       C  0.82509464  0.22123692  0.15777048    -0.04300
C3869       C  0.81297189  0.22508288  0.13576168    -0.00500
C3870       C  0.82464875  0.22055009  0.11394355    -0.03100
C3871       C  0.88665183  0.20498854  0.13519028     0.36200
C3872       C  0.78881172  0.23457312  0.13531831     0.39800
C3873       C  0.86297608  0.21052235  0.17938781     0.38900
C3874       C  0.81189689  0.22330615  0.09147131     0.35800
C3875       C  0.85025911  0.16598851  0.09424448     0.36500
C3876       C  0.89844404  0.24191172  0.04596231     0.39800
N3877       N  0.87405257  0.20759188  0.19665892    -0.38300
N3878       N  0.90684460  0.20047806  0.13483845    -0.39900
N3879       N  0.76958971  0.24222679  0.13481869    -0.37600
N3880       N  0.80168059  0.22544008  0.07356616    -0.40000
N3881       N  0.87393388  0.26977295  0.09842748    -0.39800
N3882       N  0.90810052  0.25734224  0.03621759    -0.37400
N3883       N  0.87888592  0.13695479  0.04472926    -0.38500
N3884       N  0.84068707  0.15068695  0.10426196    -0.40100
C3885       C  0.86760223  0.18847768  0.87397133    -0.05100
C3886       C  0.86307467  0.20580143  0.89170029     0.09100
C3887       C  0.84811151  0.22544782  0.88665322    -0.02400
C3888       C  0.83656725  0.22702593  0.86434438    -0.00700
C3889       C  0.83991455  0.20889391  0.84719515    -0.04300
C3890       C  0.85615258  0.19014048  0.85159574     0.02700
C3891       C  0.87368196  0.20302878  0.91593480     0.09500
C3892       C  0.84474469  0.24404419  0.90436900     0.35400
C3893       C  0.86101611  0.17261148  0.83315393     0.38900
C3894       C  0.89608338  0.21320068  0.92120848    -0.04700
C3895       C  0.90647659  0.20980227  0.94391635     0.02500
C3896       C  0.89397528  0.19696589  0.96173900    -0.04300
C3897       C  0.87134259  0.18702967  0.95641398    -0.00500
C3898       C  0.86137861  0.18983880  0.93345385    -0.03100
C3899       C  0.90829854  0.22726783  0.90322312     0.36200
C3900       C  0.85869773  0.17304938  0.97419120     0.39800
C3901       C  0.92994645  0.21968764  0.94886868     0.38900
C3902       C  0.83859729  0.17886310  0.92765225     0.35800
C3903       C  0.88394598  0.16894207  0.87887109     0.36500
C3904       C  0.82189076  0.24767112  0.85865893     0.39800
N3905       N  0.94877929  0.22734870  0.95270246    -0.38300
N3906       N  0.91788970  0.23860579  0.88886888    -0.39900
N3907       N  0.84865083  0.16193906  0.98841474    -0.37600
N3908       N  0.82049990  0.17001895  0.92294350    -0.40000
N3909       N  0.84216862  0.25897770  0.91842357    -0.39800
N3910       N  0.81040674  0.26423191  0.85396074    -0.37400
N3911       N  0.86506189  0.15871085  0.81841029    -0.38500
N3912       N  0.89704053  0.15340698  0.88280218    -0.40100
C3913       C  0.33639987  0.49918059  0.00260691    -0.05100
C3914       C  0.31349690  0.48866696  0.00132377     0.09100
C3915       C  0.29295962  0.50329866  0.00023047    -0.02400
C3916       C  0.29535061  0.52835166  0.00004003    -0.00700
C3917       C  0.31822300  0.53880530  0.00164287    -0.04300
C3918       C  0.33873667  0.52420663  0.00298729     0.02700
C3919       C  0.31115235  0.46211199  0.00229495     0.09500
C3920       C  0.26940211  0.49253461  0.99996004     0.35400
C3921       C  0.36222376  0.53497564  0.00506202     0.38900
C3922       C  0.31401383  0.45021003  0.02424801    -0.04700
C3923       C  0.31466804  0.42506020  0.02510694     0.02500
C3924       C  0.31203107  0.41134142  0.00371968    -0.04300
C3925       C  0.30630449  0.42371613  0.98214178    -0.00500
C3926       C  0.30680231  0.44889366  0.98135346    -0.03100
C3927       C  0.31686511  0.46409322  0.04601292     0.36200
C3928       C  0.29904987  0.41098335  0.96070920     0.39800
C3929       C  0.31829902  0.41391901  0.04828164     0.38900
C3930       C  0.30351508  0.46127549  0.95877027     0.35800
C3931       C  0.35752264  0.48415788  0.00386761     0.36500
C3932       C  0.27431488  0.54341290  0.99822019     0.39800
N3933       N  0.32110522  0.40530084  0.06690236    -0.38300
N3934       N  0.31916151  0.47525271  0.06327671    -0.39900
N3935       N  0.29306222  0.40102921  0.94357100    -0.37600
N3936       N  0.30101516  0.47110938  0.94073029    -0.40000
N3937       N  0.25062028  0.48389856  0.99988268    -0.39800
N3938       N  0.25755440  0.55545617  0.99666814    -0.37400
N3939       N  0.38094088  0.54358432  0.00683059    -0.38500
N3940       N  0.37429742  0.47208472  0.00497487    -0.40100
C3941       C  0.33995832  0.63858011  0.07681994    -0.05100
C3942       C  0.31752542  0.64122534  0.08807591     0.09100
C3943       C  0.29693437  0.63115702  0.07740881    -0.02400
C3944       C  0.29882204  0.61827130  0.05584744    -0.00700
C3945       C  0.32133348  0.61508094  0.04499681    -0.04300
C3946       C  0.34184358  0.62552645  0.05531769     0.02700
C3947       C  0.31525851  0.65524873  0.11079311     0.09500
C3948       C  0.27373371  0.63435337  0.08851332     0.35400
C3949       C  0.36485569  0.62285139  0.04372614     0.38900
C3950       C  0.30489437  0.67815924  0.11032526    -0.04700
C3951       C  0.30028272  0.69048794  0.13182903     0.02500
C3952       C  0.30665748  0.68019423  0.15431246    -0.04300
C3953       C  0.31927768  0.65813357  0.15431809    -0.00500
C3954       C  0.32277724  0.64542993  0.13277812    -0.03100
C3955       C  0.29863410  0.68892959  0.08750899     0.36200
C3956       C  0.32971474  0.64879463  0.17621073     0.39800
C3957       C  0.28858558  0.71359824  0.13028319     0.38900
C3958       C  0.33373084  0.62193868  0.13324212     0.35800
C3959       C  0.36100722  0.64961598  0.08718107     0.36500
C3960       C  0.27746237  0.60914912  0.04425440     0.39800
N3961       N  0.27938757  0.73206447  0.12878654    -0.38300
N3962       N  0.29364221  0.69748862  0.06932546    -0.39900
N3963       N  0.33829445  0.64140096  0.19356699    -0.37600
N3964       N  0.34241791  0.60318021  0.13354387    -0.40000
N3965       N  0.25524649  0.63710110  0.09734107    -0.39800
N3966       N  0.26042181  0.60208042  0.03485948    -0.37400
N3967       N  0.38314749  0.62072118  0.03434377    -0.38500
N3968       N  0.37781648  0.65840616  0.09545499    -0.40100
C3969       C  0.34179872  0.61518574  0.91551443    -0.05100
C3970       C  0.32866637  0.63636290  0.91194313     0.09100
C3971       C  0.31575632  0.64648020  0.93101160    -0.02400
C3972       C  0.31583606  0.63542654  0.95364773    -0.00700
C3973       C  0.32860577  0.61381111  0.95727620    -0.04300
C3974       C  0.34188332  0.60395898  0.93807860     0.02700
C3975       C  0.32652290  0.64680311  0.88748315     0.09500
C3976       C  0.30126601  0.66760387  0.92692817     0.35400
C3977       C  0.35577015  0.58229665  0.94136881     0.38900
C3978       C  0.31001363  0.63692772  0.87122537    -0.04700
C3979       C  0.30683368  0.64724248  0.84850586     0.02500
C3980       C  0.31991322  0.66783519  0.84197503    -0.04300
C3981       C  0.33712336  0.67719811  0.85803076    -0.00500
C3982       C  0.34037712  0.66669420  0.88075415    -0.03100
C3983       C  0.29572211  0.61647785  0.87823739     0.36200
C3984       C  0.35174577  0.69740136  0.85106203     0.39800
C3985       C  0.28928474  0.63698196  0.83243892     0.38900
C3986       C  0.35774330  0.67647372  0.89736550     0.35800
C3987       C  0.35444979  0.60448391  0.89558200     0.36500
C3988       C  0.30164270  0.64581704  0.97269931     0.39800
N3989       N  0.27527625  0.62816002  0.82005047    -0.38300
N3990       N  0.28433841  0.60019460  0.88385082    -0.39900
N3991       N  0.36349489  0.71344809  0.84550555    -0.37600
N3992       N  0.37158347  0.68429254  0.91063607    -0.40000
N3993       N  0.28954188  0.68432789  0.92368235    -0.39800
N3994       N  0.29038046  0.65418782  0.98787770    -0.37400
N3995       N  0.36678952  0.56496499  0.94385437    -0.38500
N3996       N  0.36429084  0.59592646  0.87954904    -0.40100
C3997       C  0.05635265  0.79695705  0.01448299    -0.05100
C3998       C  0.04031254  0.78762577  0.99750471     0.09100
C3999       C  0.04890827  0.77419947  0.97802367    -0.02400
C4000       C  0.07342705  0.76874712  0.97629306    -0.00700
C4001       C  0.08955722  0.77695733  0.99409414    -0.04300
C4002       C  0.08096434  0.79213832  0.01251274     0.02700
C4003       C  0.01406075  0.78943634  0.00127004     0.09500
C4004       C  0.03214203  0.76478655  0.96052653     0.35400
C4005       C  0.09734805  0.80286106  0.02959207     0.38900
C4006       C  0.00040130  0.80621253  0.98835421    -0.04700
C4007       C  0.97527777  0.80424844  0.98775560     0.02500
C4008       C  0.96381248  0.78584646  0.00066227    -0.04300
C4009       C  0.97758855  0.77050690  0.01546039    -0.00500
C4010       C  0.00265219  0.77219877  0.01553623    -0.03100
C4011       C  0.01236381  0.82513329  0.97538396     0.36200
C4012       C  0.96631229  0.75199031  0.02964164     0.39800
C4013       C  0.96129768  0.82112328  0.97386196     0.38900
C4014       C  0.01686047  0.75542429  0.02941319     0.35800
C4015       C  0.04735402  0.81052769  0.03463925     0.36500
C4016       C  0.08147852  0.75355820  0.95689212     0.39800
N4017       N  0.95021081  0.83463464  0.96275205    -0.38300
N4018       N  0.02203520  0.84029318  0.96523576    -0.39900
N4019       N  0.95750033  0.73727860  0.04114670    -0.37600
N4020       N  0.02822583  0.74207283  0.04043627    -0.40000
N4021       N  0.01861141  0.75732156  0.94673914    -0.39800
N4022       N  0.08769138  0.74148598  0.94130042    -0.37400
N4023       N  0.11045833  0.81132422  0.04320667    -0.38500
N4024       N  0.04023537  0.82114651  0.05087978    -0.40100
C4025       C  0.18639477  0.75824754  0.12976862    -0.05100
C4026       C  0.18982973  0.74081398  0.11189719     0.09100
C4027       C  0.20406131  0.72051993  0.11653061    -0.02400
C4028       C  0.21547126  0.71801404  0.13880869    -0.00700
C4029       C  0.21278846  0.73591032  0.15628631    -0.04300
C4030       C  0.19777472  0.75570837  0.15206990     0.02700
C4031       C  0.17880748  0.74406030  0.08793462     0.09500
C4032       C  0.20715665  0.70242804  0.09824200     0.35400
C4033       C  0.19458419  0.77374111  0.17043744     0.38900
C4034       C  0.19264549  0.75306105  0.06898584    -0.04700
C4035       C  0.18215295  0.75676159  0.04640681     0.02500
C4036       C  0.15796896  0.75035603  0.04238382    -0.04300
C4037       C  0.14420676  0.74113944  0.06152354    -0.00500
C4038       C  0.15458368  0.73831675  0.08429550    -0.03100
C4039       C  0.21772152  0.75858398  0.07283005     0.36200
C4040       C  0.11947177  0.73415260  0.05790832     0.39800
C4041       C  0.19599628  0.76840171  0.02784369     0.38900
C4042       C  0.14039458  0.72945251  0.10407981     0.35800
C4043       C  0.17157456  0.77899438  0.12498116     0.36500
C4044       C  0.22970789  0.69692419  0.14392355     0.39800
N4045       N  0.20698881  0.77784491  0.01312084    -0.38300
N4046       N  0.23775750  0.76276244  0.07588402    -0.39900
N4047       N  0.09971521  0.72866731  0.05511684    -0.37600
N4048       N  0.12910736  0.72252742  0.11993302    -0.40000
N4049       N  0.20967052  0.68805958  0.08359786    -0.39800
N4050       N  0.24091223  0.68003762  0.14810274    -0.37400
N4051       N  0.19210916  0.78817121  0.18502929    -0.38500
N4052       N  0.15972572  0.79551875  0.12115024    -0.40100
C4053       C  0.19101922  0.74029001  0.86838403    -0.05100
C4054       C  0.20304077  0.73718071  0.89030271     0.09100
C4055       C  0.22674621  0.72874892  0.89073656    -0.02400
C4056       C  0.23867303  0.72379911  0.86917495    -0.00700
C4057       C  0.22701399  0.72772207  0.84694478    -0.04300
C4058       C  0.20281539  0.73538747  0.84675119     0.02700
C4059       C  0.19013867  0.74154929  0.91307359     0.09500
C4060       C  0.23873600  0.72511257  0.91350805     0.35400
C4061       C  0.18969192  0.73827918  0.82452687     0.38900
C4062       C  0.18012799  0.72214472  0.92557331    -0.04700
C4063       C  0.16721362  0.72620883  0.94671084     0.02500
C4064       C  0.16374427  0.74974063  0.95493214    -0.04300
C4065       C  0.17420403  0.76910359  0.94275136    -0.00500
C4066       C  0.18758312  0.76499195  0.92189170    -0.03100
C4067       C  0.18307808  0.69805216  0.91651484     0.36200
C4068       C  0.17170431  0.79312811  0.95211059     0.39800
C4069       C  0.15750482  0.70621505  0.95997783     0.38900
C4070       C  0.19895036  0.78475141  0.90962789     0.35800
C4071       C  0.16637029  0.74849597  0.86816902     0.36500
C4072       C  0.26259969  0.71376449  0.87006624     0.39800
N4073       N  0.14993922  0.69021370  0.97061566    -0.38300
N4074       N  0.18557780  0.67891117  0.90915302    -0.39900
N4075       N  0.16971969  0.81221958  0.95975285    -0.37600
N4076       N  0.20811000  0.80049577  0.89989974    -0.40000
N4077       N  0.24806430  0.72223955  0.93178671    -0.39800
N4078       N  0.28164022  0.70569587  0.87091309    -0.37400
N4079       N  0.17858992  0.74026804  0.80714776    -0.38500
N4080       N  0.14674743  0.75507813  0.86799480    -0.40100
loop_ 
_geom_bond_atom_site_label_1 
_geom_bond_atom_site_label_2 
_geom_bond_distance 
_geom_bond_site_symmetry_2 
_ccdc_geom_bond_type 
C1            N2   1.354       .  A
C1            N6   1.358       .  A
C1         C4064   1.468       .  S
N2            C3   1.355   1_556  A
C3            N4   1.353       .  A
C3         C4036   1.483       .  S
N4            C5   1.355   1_554  A
C5            N6   1.358       .  A
C5         C4001   1.489       .  S
C7            N8   1.358       .  A
C7           N12   1.357       .  A
C7         C3945   1.478       .  S
N8            C9   1.357       .  A
C9           N10   1.356   1_554  A
C9         C3917   1.475       .  S
N10          C11   1.358       .  A
C11          N12   1.359   1_556  A
C11        C3973   1.491       .  S
C13          N14   1.354       .  A
C13          N18   1.356       .  A
C13        C3861   1.470       .  S
N14          C15   1.356   1_554  A
C15          N16   1.355       .  A
C15        C3896   1.480       .  S
N16          C17   1.356   1_556  A
C17          N18   1.358       .  A
C17        C3840   1.486       .  S
C19          N20   1.358       .  A
C19          N24   1.363   1_556  A
C19        C3812   1.485       .  S
N20          C21   1.357   1_556  A
C21          N22   1.356       .  A
C21        C3749   1.480   1_554  S
N22          C23   1.359       .  A
C23          N24   1.364       .  A
C23        C3784   1.494       .  S
C25          N26   1.357       .  A
C25          N30   1.353       .  A
C25        C3721   1.472       .  S
N26          C27   1.359   1_565  A
C27          N28   1.355       .  A
C27        C3693   1.471       .  S
N28          C29   1.356   1_545  A
C29          N30   1.353       .  A
C29        C3672   1.485       .  S
C31          N32   1.361       .  A
C31          N36   1.361       .  A
C31        C3616   1.497   1_565  S
N32          C33   1.357       .  A
C33          N34   1.358       .  A
C33        C3637   1.480       .  S
N34          C35   1.359       .  A
C35          N36   1.359       .  A
C35        C3588   1.487       .  S
C37          N38   1.359       .  A
C37          N42   1.358       .  A
C37        C3525   1.494   1_565  S
N38          C39   1.358       .  A
C39          N40   1.355       .  A
C39        C3553   1.474       .  S
N40          C41   1.355       .  A
C41          N42   1.356       .  A
C41        C3497   1.484       .  S
C43          N44   1.360       .  A
C43          N48   1.358       .  A
C43        C3469   1.500       .  S
N44          C45   1.358       .  A
C45          N46   1.359       .  A
C45        C3441   1.484   1_565  S
N46          C47   1.359       .  A
C47          N48   1.358       .  A
C47        C3413   1.491       .  S
C49          N50   1.353       .  A
C49          N54   1.357   1_554  A
C49        C3357   1.472       .  S
N50          C51   1.354   1_554  A
C51          N52   1.359       .  A
C51        C4008   1.482   1_556  S
N52          C53   1.359       .  A
C53          N54   1.359       .  A
C53        C3392   1.478       .  S
C55          N56   1.357       .  A
C55          N60   1.360   1_554  A
C55        C3308   1.486       .  S
N56          C57   1.358   1_554  A
C57          N58   1.359       .  A
C57        C3756   1.508       .  S
N58          C59   1.361       .  A
C59          N60   1.361       .  A
C59        C3329   1.502       .  S
C61          N62   1.357       .  A
C61          N66   1.360   1_556  A
C61        C3273   1.500       .  S
N62          C63   1.354   1_556  A
C63          N64   1.356       .  A
C63        C3833   1.483       .  S
N64          C65   1.355       .  A
C65          N66   1.359       .  A
C65        C3252   1.480       .  S
C67          N68   1.361       .  A
C67          N72   1.353   1_556  A
C67        C3224   1.494       .  S
N68          C69   1.361   1_556  A
C69          N70   1.357       .  A
C69        C3924   1.511       .  S
N70          C71   1.353       .  A
C71          N72   1.351       .  A
C71        C3189   1.466       .  S
C73          N74   1.360       .  A
C73          N78   1.356       .  A
C73        C3168   1.494       .  S
N74          C75   1.358       .  A
C75          N76   1.355       .  A
C75        C3665   1.471       .  S
N76          C77   1.353       .  A
C77          N78   1.352       .  A
C77        C3133   1.466   1_565  S
C79          N80   1.355       .  A
C79          N84   1.358       .  A
C79        C3084   1.479   1_565  S
N80          C81   1.355       .  A
C81          N82   1.358       .  A
C81        C3420   1.477       .  S
N82          C83   1.359       .  A
C83          N84   1.359       .  A
C83        C3105   1.481       .  S
C85          N86   1.358       .  A
C85          N90   1.356   1_545  A
C85        C3028   1.477       .  S
N86          C87   1.361   1_545  A
C87          N88   1.358       .  A
C87        C3504   1.494       .  S
N88          C89   1.355       .  A
C89          N90   1.355       .  A
C89        C3049   1.471       .  S
C91          N92   1.360       .  A
C91          N96   1.362       .  A
C91        C3000   1.497       .  S
N92          C93   1.358       .  A
C93          N94   1.360   1_565  A
C93        C3581   1.500       .  S
N94          C95   1.358       .  A
C95          N96   1.361   1_545  A
C95        C2965   1.484       .  S
C97          N98   1.352       .  A
C97         N102   1.356       .  A
C97        C2937   1.469   1_455  S
N98          C99   1.353       .  A
C99         N100   1.356       .  A
C99        C2881   1.473       .  S
N100        C101   1.357       .  A
C101        N102   1.358       .  A
C101       C2909   1.484       .  S
C103        N104   1.364       .  A
C103        N108   1.361       .  A
C103       C2853   1.502   1_455  S
N104        C105   1.363       .  A
C105        N106   1.359       .  A
C105       C2825   1.503       .  S
N106        C107   1.356       .  A
C107        N108   1.357       .  A
C107       C2797   1.482       .  S
C109        N110   1.358       .  A
C109        N114   1.359       .  A
C109       C2741   1.481       .  S
N110        C111   1.355       .  A
C111        N112   1.351       .  A
C111       C2769   1.466   1_455  S
N112        C113   1.353       .  A
C113        N114   1.359       .  A
C113       C2888   1.478       .  S
C115        N116   1.361       .  A
C115        N120   1.358       .  A
C115       C2713   1.502   1_455  S
N116        C117   1.362       .  A
C117        N118   1.361       .  A
C117       C2685   1.490       .  S
N118        C119   1.360       .  A
C119        N120   1.357       .  A
C119       C2657   1.491       .  S
C121        N122   1.354       .  A
C121        N126   1.353       .  A
C121       C2629   1.471       .  S
N122        C123   1.359       .  A
C123        N124   1.360       .  A
C123       C2573   1.496       .  S
N124        C125   1.359       .  A
C125        N126   1.355       .  A
C125       C2601   1.473   1_455  S
C127        N128   1.363       .  A
C127        N132   1.359       .  A
C127       C2545   1.506       .  S
N128        C129   1.361       .  A
C129        N130   1.359       .  A
C129       C2517   1.498   1_455  S
N130        C131   1.358       .  A
C131        N132   1.358       .  A
C131       C2664   1.495       .  S
C133        N134   1.361       .  A
C133        N138   1.363       .  A
C133       C2489   1.501   1_455  S
N134        C135   1.358       .  A
C135        N136   1.352       .  A
C135       C2580   1.478       .  S
N136        C137   1.353       .  A
C137        N138   1.360       .  A
C137       C2461   1.476       .  S
C139        N140   1.358       .  A
C139        N144   1.360       .  A
C139       C2405   1.504       .  S
N140        C141   1.357       .  A
C141        N142   1.362       .  A
C141       C2804   1.500       .  S
N142        C143   1.362       .  A
C143        N144   1.361       .  A
C143       C2433   1.494   1_455  S
C145        N146   1.349       .  A
C145        N150   1.348       .  A
C145       C2349   1.460       .  S
N146        C147   1.350       .  A
C147        N148   1.360       .  A
C147       C2384   1.502       .  S
N148        C149   1.362       .  A
C149        N150   1.352       .  A
C149       C2321   1.484       .  S
C151        N152   1.357       .  A
C151        N156   1.361       .  A
C151       C2293   1.484       .  S
N152        C153   1.356       .  A
C153        N154   1.356       .  A
C153       C2244   1.485       .  S
N154        C155   1.357       .  A
C155        N156   1.360       .  A
C155       C2265   1.488       .  S
O157       Zr193   2.432       .  S
O157        C168   1.290       .  A
O158       Zr192   2.439       .  S
O158        C169   1.291       .  A
O159       Zr165   2.447       .  S
O159        C170   1.293       .  A
O160       Zr165   2.429       .  S
O160        C171   1.291       .  A
O161       Zr195   2.441       .  S
O161        C171   1.293       .  A
O162       Zr194   2.442       .  S
O162        C170   1.293       .  A
O163       Zr165   2.445       .  S
O163        C169   1.292       .  A
O164       Zr165   2.418       .  S
O164        C168   1.287       .  A
Zr165       O166   2.341       .  S
Zr165       O167   2.343       .  S
Zr165       O175   2.340       .  S
Zr165       O173   2.330       .  S
O166       Zr192   2.329       .  S
O166       Zr195   2.339       .  S
O167       Zr193   2.339       .  S
O167       Zr194   2.332       .  S
C168       C4029   1.463       .  S
C169       C2552   1.481       .  S
C170       C2272   1.505       .  S
C171       C2636   1.493       .  S
H172        O173   0.967       .  S
O173       Zr192   2.339       .  S
O173       Zr194   2.348       .  S
H174        O175   0.965       .  S
O175       Zr193   2.340       .  S
O175       Zr195   2.345       .  S
O176       Zr192   2.439       .  S
O176        C199   1.291       .  A
O177       Zr193   2.438       .  S
O177        C200   1.291       .  A
O178       Zr194   2.419       .  S
O178        C201   1.289       .  A
O179       Zr195   2.473       .  S
O179        C202   1.299       .  A
O180       Zr195   2.441       .  S
O180        C203   1.294       .  A
O181       Zr194   2.452       .  S
O181        C204   1.295       .  A
O182       Zr196   2.426       .  S
O182        C205   1.290       .  A
O183       Zr196   2.446       .  S
O183        C206   1.294       .  A
O184       Zr194   2.446       .  S
O184        C205   1.294       .  A
O185       Zr195   2.436       .  S
O185        C206   1.292       .  A
O186       Zr192   2.406       .  S
O186        C201   1.286       .  A
O187       Zr193   2.430       .  S
O187        C204   1.289       .  A
O188       Zr193   2.430       .  S
O188        C203   1.291       .  A
O189       Zr192   2.413       .  S
O189        C202   1.286       .  A
O190       Zr196   2.439       .  S
O190        C199   1.292       .  A
O191       Zr196   2.462       .  S
O191        C200   1.297       .  A
Zr192       O198   2.334       .  S
Zr192       O210   2.339       .  S
Zr193       O197   2.341       .  S
Zr193       O208   2.332       .  S
Zr194       O198   2.338       .  S
Zr194       O208   2.331       .  S
Zr195       O197   2.352       .  S
Zr195       O210   2.332       .  S
Zr196       O197   2.336       .  S
Zr196       O198   2.338       .  S
Zr196       O210   2.343       .  S
Zr196       O208   2.340       .  S
C199       C2181   1.476       .  S
C200       C2153   1.491       .  S
C201       C2356   1.472       .  S
C202       C2216   1.510       .  S
C203       C3056   1.490       .  S
C204       C3952   1.508       .  S
C205       C2132   1.503       .  S
C206       C2993   1.493       .  S
H207        O208   0.965       .  S
H209        O210   0.967       .  S
C211        N212   1.356       .  A
C211        N216   1.358       .  A
C211       C2097   1.482       .  S
N212        C213   1.358       .  A
C213        N214   1.360       .  A
C213       C2041   1.511       .  S
N214        C215   1.360       .  A
C215        N216   1.360       .  A
C215       C2069   1.498       .  S
C217        N218   1.356       .  A
C217        N222   1.358       .  A
C217       C2013   1.474       .  S
N218        C219   1.355       .  A
C219        N220   1.354       .  A
C219       C1964   1.476       .  S
N220        C221   1.355       .  A
C221        N222   1.358       .  A
C221       C1992   1.482       .  S
O223       Zr259   2.415       .  S
O223        C234   1.287       .  A
O224       Zr258   2.442       .  S
O224        C235   1.292       .  A
O225       Zr231   2.449       .  S
O225        C236   1.294       .  A
O226       Zr231   2.430       .  S
O226        C237   1.291       .  A
O227       Zr261   2.439       .  S
O227        C237   1.292       .  A
O228       Zr260   2.435       .  S
O228        C236   1.291       .  A
O229       Zr231   2.424       .  S
O229        C235   1.289       .  A
O230       Zr231   2.436       .  S
O230        C234   1.291       .  A
Zr231       O232   2.340       .  S
Zr231       O233   2.332       .  S
Zr231       O241   2.341       .  S
Zr231       O239   2.330       .  S
O232       Zr258   2.335       .  S
O232       Zr261   2.338       .  S
O233       Zr259   2.341       .  S
O233       Zr260   2.325       .  S
C234       C3532   1.466       .  S
C235       C3217   1.473       .  S
C236       C1873   1.502       .  S
C237       C3280   1.493       .  S
H238        O239   0.966       .  S
O239       Zr258   2.349       .  S
O239       Zr260   2.347       .  S
H240        O241   0.966       .  S
O241       Zr259   2.336       .  S
O241       Zr261   2.334       .  S
O242       Zr258   2.444       .  S
O242        C265   1.294       .  A
O243       Zr259   2.447       .  S
O243        C266   1.294       .  A
O244       Zr260   2.432       .  S
O244        C267   1.291       .  A
O245       Zr261   2.432       .  S
O245        C268   1.291       .  A
O246       Zr261   2.428       .  S
O246        C269   1.290       .  A
O247       Zr260   2.462       .  S
O247        C270   1.297       .  A
O248       Zr262   2.441       .  S
O248        C271   1.292       .  A
O249       Zr262   2.456       .  S
O249        C272   1.295       .  A
O250       Zr260   2.434       .  S
O250        C271   1.291       .  A
O251       Zr261   2.444       .  S
O251        C272   1.293       .  A
O252       Zr258   2.441       .  S
O252        C267   1.294       .  A
O253       Zr259   2.422       .  S
O253        C270   1.289       .  A
O254       Zr259   2.433       .  S
O254        C269   1.290       .  A
O255       Zr258   2.445       .  S
O255        C268   1.294       .  A
O256       Zr262   2.413       .  S
O256        C265   1.287       .  A
O257       Zr262   2.408       .  S
O257        C266   1.287       .  A
Zr258       O264   2.335       .  S
Zr258       O276   2.339       .  S
Zr259       O263   2.334       .  S
Zr259       O274   2.336       .  S
Zr260       O264   2.347       .  S
Zr260       O274   2.340       .  S
Zr261       O263   2.341       .  S
Zr261       O276   2.336       .  S
Zr262       O263   2.337       .  S
Zr262       O264   2.336       .  S
Zr262       O276   2.331       .  S
Zr262       O274   2.346       .  S
C265       C1901   1.488       .  S
C266       C1985   1.482       .  S
C267       C1845   1.493       .  S
C268       C1929   1.499       .  S
C269       C2916   1.501       .  S
C270       C3448   1.507       .  S
C271       C2076   1.475       .  S
C272       C2832   1.494       .  S
H273        O274   0.967       .  S
H275        O276   0.966       .  S
C277        N278   1.360       .  A
C277        N282   1.360       .  A
C277       C2188   1.493       .  S
N278        C279   1.359       .  A
C279        N280   1.355       .  A
C279       C1789   1.487       .  S
N280        C281   1.356       .  A
C281        N282   1.359       .  A
C281       C1817   1.504       .  S
C283        N284   1.362       .  A
C283        N288   1.356       .  A
C283       C1768   1.486       .  S
N284        C285   1.362       .  A
C285        N286   1.358       .  A
C285       C2209   1.484       .  S
N286        C287   1.358       .  A
C287        N288   1.358       .  A
C287       C1957   1.499       .  S
C289        N290   1.358       .  A
C289        N294   1.359       .  A
C289       C1740   1.498       .  S
N290        C291   1.356       .  A
C291        N292   1.353       .  A
C291       C1908   1.472       .  S
N292        C293   1.354       .  A
C293        N294   1.358       .  A
C293       C2328   1.481       .  S
C295        N296   1.360       .  A
C295        N300   1.356       .  A
C295       C1936   1.480       .  S
N296        C297   1.361       .  A
C297        N298   1.362       .  A
C297       C1705   1.494       .  S
N298        C299   1.360       .  A
C299        N300   1.355       .  A
C299       C1677   1.479       .  S
O301       Zr337   2.431       .  S
O301        C312   1.292       .  A
O302       Zr336   2.436       .  S
O302        C313   1.291       .  A
O303       Zr309   2.437       .  S
O303        C314   1.291       .  A
O304       Zr309   2.448       .  S
O304        C315   1.294       .  A
O305       Zr339   2.459       .  S
O305        C315   1.296       .  A
O306       Zr338   2.438       .  S
O306        C314   1.291       .  A
O307       Zr309   2.449       .  S
O307        C313   1.294       .  A
O308       Zr309   2.433       .  S
O308        C312   1.291       .  A
Zr309       O310   2.336       .  S
Zr309       O311   2.343       .  S
Zr309       O319   2.348       .  S
Zr309       O317   2.342       .  S
O310       Zr336   2.336       .  S
O310       Zr339   2.347       .  S
O311       Zr337   2.343       .  S
O311       Zr338   2.337       .  S
C312       C4057   1.487       .  S
C313       C2692   1.501       .  S
C314       C2748   1.478       .  S
C315       C1712   1.507       .  S
H316        O317   0.965       .  S
O317       Zr336   2.341       .  S
O317       Zr338   2.342       .  S
H318        O319   0.967       .  S
O319       Zr337   2.349       .  S
O319       Zr339   2.341       .  S
O320       Zr336   2.426       .  S
O320        C343   1.290       .  A
O321       Zr337   2.455       .  S
O321        C344   1.295       .  A
O322       Zr338   2.448       .  S
O322        C345   1.294       .  A
O323       Zr339   2.423       .  S
O323        C346   1.289       .  A
O324       Zr339   2.442       .  S
O324        C347   1.293       .  A
O325       Zr338   2.438       .  S
O325        C348   1.293       .  A
O326       Zr340   2.441       .  S
O326        C349   1.293       .  A
O327       Zr340   2.415       .  S
O327        C350   1.288       .  A
O328       Zr338   2.434       .  S
O328        C349   1.291       .  A
O329       Zr339   2.461       .  S
O329        C350   1.297       .  A
O330       Zr336   2.438       .  S
O330        C345   1.292       .  A
O331       Zr337   2.433       .  S
O331        C348   1.291       .  A
O332       Zr337   2.432       .  S
O332        C347   1.291       .  A
O333       Zr336   2.449       .  S
O333        C346   1.293       .  A
O334       Zr340   2.438       .  S
O334        C343   1.292       .  A
O335       Zr340   2.449       .  S
O335        C344   1.294       .  A
Zr336       O342   2.341       .  S
Zr336       O354   2.339       .  S
Zr337       O341   2.333       .  S
Zr337       O352   2.338       .  S
Zr338       O342   2.333       .  S
Zr338       O352   2.345       .  S
Zr339       O341   2.344       .  S
Zr339       O354   2.343       .  S
Zr340       O341   2.342       .  S
Zr340       O342   2.333       .  S
Zr340       O354   2.346       .  S
Zr340       O352   2.329       .  S
C343       C1824   1.490       .  S
C344       C1649   1.509       .  S
C345       C1761   1.502       .  S
C346       C1733   1.478       .  S
C347       C3980   1.485       .  S
C348       C3560   1.491       .  S
C349       C3476   1.482       .  S
C350       C1621   1.492       .  S
H351        O352   0.966       .  S
H353        O354   0.966       .  S
C355        N356   1.353       .  A
C355        N360   1.354       .  A
C355       C1593   1.468       .  S
N356        C357   1.354       .  A
C357        N358   1.357       .  A
C357       C1537   1.472       .  S
N358        C359   1.360       .  A
C359        N360   1.359       .  A
C359       C1565   1.493       .  S
C361        N362   1.355       .  A
C361        N366   1.361       .  A
C361       C1481   1.493       .  S
N362        C363   1.353       .  A
C363        N364   1.355       .  A
C363       C2237   1.482       .  S
N364        C365   1.360       .  A
C365        N366   1.363       .  A
C365       C1509   1.508       .  S
C367        N368   1.356       .  A
C367        N372   1.358       .  A
C367       C1453   1.480       .  S
N368        C369   1.356       .  A
C369        N370   1.355       .  A
C369       C1425   1.478       .  S
N370        C371   1.353       .  A
C371        N372   1.357       .  A
C371       C2125   1.470       .  S
C373        N374   1.365       .  A
C373        N378   1.359       .  A
C373       C1397   1.513       .  S
N374        C375   1.365       .  A
C375        N376   1.361       .  A
C375       C2160   1.493       .  S
N376        C377   1.361       .  A
C377        N378   1.359       .  A
C377       C1376   1.514       .  S
O379       Zr415   2.420       .  S
O379        C390   1.289       .  A
O380       Zr414   2.442       .  S
O380        C391   1.292       .  A
O381       Zr387   2.449       .  S
O381        C392   1.295       .  A
O382       Zr387   2.461       .  S
O382        C393   1.296       .  A
O383       Zr417   2.438       .  S
O383        C393   1.291       .  A
O384       Zr416   2.443       .  S
O384        C392   1.293       .  A
O385       Zr387   2.447       .  S
O385        C391   1.294       .  A
O386       Zr387   2.446       .  S
O386        C390   1.293       .  A
Zr387       O388   2.333       .  S
Zr387       O389   2.344       .  S
Zr387       O397   2.355       .  S
Zr387       O395   2.348       .  S
O388       Zr414   2.324       .  S
O388       Zr417   2.344       .  S
O389       Zr415   2.337       .  S
O389       Zr416   2.349       .  S
C390       C3728   1.479       .  S
C391       C3301   1.502       .  S
C392       C3364   1.495       .  S
C393       C1404   1.487       .  S
H394        O395   0.966       .  S
O395       Zr414   2.339       .  S
O395       Zr416   2.350       .  S
H396        O397   0.966       .  S
O397       Zr415   2.341       .  S
O397       Zr417   2.343       .  S
O398       Zr414   2.428       .  S
O398        C421   1.290       .  A
O399       Zr415   2.420       .  S
O399        C422   1.288       .  A
O400       Zr416   2.449       .  S
O400        C423   1.295       .  A
O401       Zr417   2.414       .  S
O401        C424   1.287       .  A
O402       Zr417   2.439       .  S
O402        C425   1.292       .  A
O403       Zr416   2.437       .  S
O403        C426   1.292       .  A
O404       Zr418   2.448       .  S
O404        C427   1.294       .  A
O405       Zr418   2.414       .  S
O405        C428   1.288       .  A
O406       Zr416   2.456       .  S
O406        C427   1.295       .  A
O407       Zr417   2.456       .  S
O407        C428   1.295       .  A
O408       Zr414   2.425       .  S
O408        C423   1.289       .  A
O409       Zr415   2.436       .  S
O409        C426   1.292       .  A
O410       Zr415   2.448       .  S
O410        C425   1.294       .  A
O411       Zr414   2.441       .  S
O411        C424   1.292       .  A
O412       Zr418   2.433       .  S
O412        C421   1.291       .  A
O413       Zr418   2.447       .  S
O413        C422   1.293       .  A
Zr414       O420   2.349       .  S
Zr414       O432   2.335       .  S
Zr415       O419   2.331       .  S
Zr415       O430   2.344       .  S
Zr416       O420   2.335       .  S
Zr416       O430   2.342       .  S
Zr417       O419   2.327       .  S
Zr417       O432   2.332       .  S
Zr418       O419   2.338       .  S
Zr418       O420   2.336       .  S
Zr418       O432   2.343       .  S
Zr418       O430   2.332       .  S
C421       C1572   1.469       .  S
C422       C1341   1.475       .  S
C423       C1488   1.496       .  S
C424       C1460   1.497       .  S
C425       C3644   1.507       .  S
C426       C2608   1.485       .  S
C427       C2524   1.502       .  S
C428       C1320   1.497       .  S
H429        O430   0.966       .  S
H431        O432   0.966       .  S
C433        N434   1.358       .  A
C433        N438   1.356       .  A
C433       C1285   1.475       .  S
N434        C435   1.360       .  A
C435        N436   1.357       .  A
C435       C1796   1.495       .  S
N436        C437   1.354       .  A
C437        N438   1.355       .  A
C437       C1313   1.473       .  S
C439        N440   1.358       .  A
C439        N444   1.359       .  A
C439       C1257   1.489       .  S
N440        C441   1.357       .  A
C441        N442   1.358       .  A
C441       C1229   1.483       .  S
N442        C443   1.360       .  A
C443        N444   1.361       .  A
C443       C1348   1.504       .  S
C445        N446   1.356       .  A
C445        N450   1.360       .  A
C445       C1201   1.478       .  S
N446        C447   1.355       .  A
C447        N448   1.354       .  A
C447       C1628   1.491       .  S
N448        C449   1.355       .  A
C449        N450   1.360       .  A
C449       C1180   1.489       .  S
C451        N452   1.362       .  A
C451        N456   1.359       .  A
C451       C1656   1.491       .  S
N452        C453   1.364       .  A
C453        N454   1.362       .  A
C453       C1145   1.500       .  S
N454        C455   1.361       .  A
C455        N456   1.357       .  A
C455       C1369   1.487       .  S
C457        N458   1.359       .  A
C457        N462   1.358       .  A
C457       C1089   1.483       .  S
N458        C459   1.358       .  A
C459        N460   1.356       .  A
C459       C1124   1.488       .  S
N460        C461   1.359       .  A
C461        N462   1.360       .  A
C461       C1544   1.492       .  S
C463        N464   1.362       .  A
C463        N468   1.361       .  A
C463       C1061   1.487       .  S
N464        C465   1.362       .  A
C465        N466   1.354       .  A
C465       C1033   1.484       .  S
N466        C467   1.356       .  A
C467        N468   1.361       .  A
C467       C1684   1.502       .  S
O469       Zr505   2.422       .  S
O469        C480   1.289       .  A
O470       Zr504   2.455       .  S
O470        C481   1.294       .  A
O471       Zr477   2.451       .  S
O471        C482   1.294       .  A
O472       Zr477   2.432       .  S
O472        C483   1.291       .  A
O473       Zr507   2.429       .  S
O473        C483   1.290       .  A
O474       Zr506   2.444       .  S
O474        C482   1.293       .  A
O475       Zr477   2.446       .  S
O475        C481   1.293       .  A
O476       Zr477   2.468       .  S
O476        C480   1.298       .  A
Zr477       O478   2.350       .  S
Zr477       O479   2.341       .  S
Zr477       O487   2.337       .  S
Zr477       O485   2.346       .  S
O478       Zr504   2.338       .  S
O478       Zr507   2.330       .  S
O479       Zr505   2.343       .  S
O479       Zr506   2.339       .  S
C480       C3385   1.504       .  S
C481       C2720   1.486       .  S
C482       C1068   1.507       .  S
C483       C2776   1.494       .  S
H484        O485   0.966       .  S
O485       Zr504   2.345       .  S
O485       Zr506   2.343       .  S
H486        O487   0.965       .  S
O487       Zr505   2.349       .  S
O487       Zr507   2.340       .  S
O488       Zr504   2.446       .  S
O488        C511   1.294       .  A
O489       Zr505   2.462       .  S
O489        C512   1.297       .  A
O490       Zr506   2.434       .  S
O490        C513   1.291       .  A
O491       Zr507   2.457       .  S
O491        C514   1.295       .  A
O492       Zr507   2.434       .  S
O492        C515   1.291       .  A
O493       Zr506   2.442       .  S
O493        C516   1.292       .  A
O494       Zr508   2.423       .  S
O494        C517   1.290       .  A
O495       Zr508   2.452       .  S
O495        C518   1.295       .  A
O496       Zr506   2.446       .  S
O496        C517   1.294       .  A
O497       Zr507   2.423       .  S
O497        C518   1.289       .  A
O498       Zr504   2.440       .  S
O498        C513   1.292       .  A
O499       Zr505   2.451       .  S
O499        C516   1.294       .  A
O500       Zr505   2.424       .  S
O500        C515   1.289       .  A
O501       Zr504   2.433       .  S
O501        C514   1.291       .  A
O502       Zr508   2.442       .  S
O502        C511   1.293       .  A
O503       Zr508   2.455       .  S
O503        C512   1.295       .  A
Zr504       O510   2.339       .  S
Zr504       O522   2.347       .  S
Zr505       O509   2.338       .  S
Zr505       O520   2.333       .  S
Zr506       O510   2.340       .  S
Zr506       O520   2.349       .  S
Zr507       O509   2.347       .  S
Zr507       O522   2.331       .  S
Zr508       O509   2.326       .  S
Zr508       O510   2.349       .  S
Zr508       O522   2.344       .  S
Zr508       O520   2.349       .  S
C511       C1292   1.493       .  S
C512       C1152   1.510       .  S
C513       C1117   1.481       .  S
C514       C1264   1.499       .  S
C515       C3161   1.466       .  S
C516       C3336   1.486       .  S
C517       C1208   1.487       .  S
C518       C3112   1.499       .  S
H519        O520   0.967       .  S
H521        O522   0.967       .  S
C523        N524   1.353       .  A
C523        N528   1.354       .  A
C523        C977   1.476       .  S
N524        C525   1.355       .  A
C525        N526   1.361       .  A
C525       C1432   1.491       .  S
N526        C527   1.360       .  A
C527        N528   1.357       .  A
C527       C1012   1.483       .  S
C529        N530   1.355       .  A
C529        N534   1.356       .  A
C529        C949   1.487       .  S
N530        C531   1.356       .  A
C531        N532   1.359       .  A
C531        C900   1.484       .  S
N532        C533   1.362       .  A
C533        N534   1.360       .  A
C533        C928   1.514       .  S
O535       Zr571   2.436       .  S
O535        C546   1.292       .  A
O536       Zr570   2.463       .  S
O536        C547   1.297       .  A
O537       Zr543   2.429       .  S
O537        C548   1.289       .  A
O538       Zr543   2.442       .  S
O538        C549   1.292       .  A
O539       Zr573   2.439       .  S
O539        C549   1.291       .  A
O540       Zr572   2.454       .  S
O540        C548   1.294       .  A
O541       Zr543   2.427       .  S
O541        C547   1.289       .  A
O542       Zr543   2.420       .  S
O542        C546   1.288       .  A
Zr543       O544   2.337       .  S
Zr543       O545   2.339       .  S
Zr543       O553   2.331       .  S
Zr543       O551   2.333       .  S
O544       Zr570   2.337       .  S
O544       Zr573   2.340       .  S
O545       Zr571   2.335       .  S
O545       Zr572   2.333       .  S
C546       C3868   1.490       .  S
C547       C2440   1.505       .  S
C548       C1516   1.480       .  S
C549       C2496   1.478       .  S
H550        O551   0.964       .  S
O551       Zr570   2.341       .  S
O551       Zr572   2.341       .  S
H552        O553   0.969       .  S
O553       Zr571   2.343       .  S
O553       Zr573   2.344       .  S
O554       Zr570   2.458       .  S
O554        C577   1.297       .  A
O555       Zr571   2.441       .  S
O555        C578   1.293       .  A
O556       Zr572   2.429       .  S
O556        C579   1.291       .  A
O557       Zr573   2.456       .  S
O557        C580   1.296       .  A
O558       Zr573   2.442       .  S
O558        C581   1.294       .  A
O559       Zr572   2.436       .  S
O559        C582   1.291       .  A
O560       Zr574   2.431       .  S
O560        C583   1.290       .  A
O561       Zr574   2.438       .  S
O561        C584   1.291       .  A
O562       Zr572   2.435       .  S
O562        C583   1.291       .  A
O563       Zr573   2.447       .  S
O563        C584   1.293       .  A
O564       Zr570   2.434       .  S
O564        C579   1.292       .  A
O565       Zr571   2.437       .  S
O565        C582   1.292       .  A
O566       Zr571   2.421       .  S
O566        C581   1.289       .  A
O567       Zr570   2.438       .  S
O567        C580   1.293       .  A
O568       Zr574   2.432       .  S
O568        C577   1.291       .  A
O569       Zr574   2.449       .  S
O569        C578   1.294       .  A
Zr570       O576   2.340       .  S
Zr570       O588   2.350       .  S
Zr571       O575   2.343       .  S
Zr571       O586   2.334       .  S
Zr572       O576   2.340       .  S
Zr572       O586   2.344       .  S
Zr573       O575   2.344       .  S
Zr573       O588   2.342       .  S
Zr574       O575   2.332       .  S
Zr574       O576   2.343       .  S
Zr574       O588   2.348       .  S
Zr574       O586   2.344       .  S
C577        C837   1.506       .  S
C578        C956   1.503       .  S
C579       C1600   1.491       .  S
C580        C865   1.502       .  S
C581       C3700   1.488       .  S
C582       C3777   1.497       .  S
C583       C1005   1.470       .  S
C584       C3609   1.480       .  S
H585        O586   0.969       .  S
H587        O588   0.955       .  S
C589        N590   1.360       .  A
C589        N594   1.357       .  A
C589       C1852   1.498       .  S
N590        C591   1.357       .  A
C591        N592   1.355       .  A
C591        C809   1.472       .  S
N592        C593   1.355       .  A
C593        N594   1.356       .  A
C593       C1173   1.475       .  S
C595        N596   1.357       .  A
C595        N600   1.362       .  A
C595       C1880   1.493       .  S
N596        C597   1.356       .  A
C597        N598   1.357       .  A
C597        C893   1.492       .  S
N598        C599   1.360       .  A
C599        N600   1.362       .  A
C599        C781   1.500       .  S
C601        N602   1.354       .  A
C601        N606   1.355       .  A
C601        C760   1.471       .  S
N602        C603   1.355       .  A
C603        N604   1.362       .  A
C603       C2048   1.476       .  S
N604        C605   1.362       .  A
C605        N606   1.357       .  A
C605        C844   1.484       .  S
C607        N608   1.358       .  A
C607        N612   1.362       .  A
C607        C872   1.492       .  S
N608        C609   1.356       .  A
C609        N610   1.356       .  A
C609        C732   1.482       .  S
N610        C611   1.358       .  A
C611        N612   1.363       .  A
C611       C1236   1.500       .  S
O613       Zr649   2.435       .  S
O613        C624   1.291       .  A
O614       Zr648   2.447       .  S
O614        C625   1.293       .  A
O615       Zr621   2.430       .  S
O615        C626   1.291       .  A
O616       Zr621   2.419       .  S
O616        C627   1.287       .  A
O617       Zr651   2.449       .  S
O617        C627   1.295       .  A
O618       Zr650   2.445       .  S
O618        C626   1.293       .  A
O619       Zr621   2.444       .  S
O619        C625   1.293       .  A
O620       Zr621   2.421       .  S
O620        C624   1.288       .  A
Zr621       O622   2.342       .  S
Zr621       O623   2.340       .  S
Zr621       O631   2.340       .  S
Zr621       O629   2.332       .  S
O622       Zr648   2.343       .  S
O622       Zr651   2.346       .  S
O623       Zr649   2.346       .  S
O623       Zr650   2.341       .  S
C624       C3889   1.467       .  S
C625       C2860   1.486       .  S
C626       C2944   1.489       .  S
C627       C1040   1.499       .  S
H628        O629   0.966       .  S
O629       Zr648   2.343       .  S
O629       Zr650   2.342       .  S
H630        O631   0.966       .  S
O631       Zr649   2.334       .  S
O631       Zr651   2.330       .  S
O632       Zr648   2.444       .  S
O632        C655   1.293       .  A
O633       Zr649   2.434       .  S
O633        C656   1.290       .  A
O634       Zr650   2.448       .  S
O634        C657   1.294       .  A
O635       Zr651   2.441       .  S
O635        C658   1.294       .  A
O636       Zr651   2.450       .  S
O636        C659   1.295       .  A
O637       Zr650   2.442       .  S
O637        C660   1.293       .  A
O638       Zr652   2.450       .  S
O638        C661   1.294       .  A
O639       Zr652   2.430       .  S
O639        C662   1.292       .  A
O640       Zr650   2.429       .  S
O640        C661   1.291       .  A
O641       Zr651   2.440       .  S
O641        C662   1.292       .  A
O642       Zr648   2.433       .  S
O642        C657   1.291       .  A
O643       Zr649   2.426       .  S
O643        C660   1.290       .  A
O644       Zr649   2.440       .  S
O644        C659   1.292       .  A
O645       Zr648   2.451       .  S
O645        C658   1.295       .  A
O646       Zr652   2.425       .  S
O646        C655   1.289       .  A
O647       Zr652   2.447       .  S
O647        C656   1.293       .  A
Zr648       O654   2.345       .  S
Zr648       O666   2.337       .  S
Zr649       O653   2.330       .  S
Zr649       O664   2.343       .  S
Zr650       O654   2.340       .  S
Zr650       O664   2.349       .  S
Zr651       O653   2.340       .  S
Zr651       O666   2.341       .  S
Zr652       O653   2.338       .  S
Zr652       O654   2.340       .  S
Zr652       O666   2.339       .  S
Zr652       O664   2.329       .  S
C655        C753   1.472       .  S
C656        C788   1.480       .  S
C657        C725   1.505       .  S
C658       C1096   1.501       .  S
C659       C3805   1.511       .  S
C660       C3140   1.486       .  S
C661       C3077   1.502       .  S
C662        C816   1.493       .  S
H663        O664   0.966       .  S
H665        O666   0.964       .  S
O667       Zr703   2.421       .  S
O667        C678   1.288       .  A
O668       Zr702   2.469       .  S
O668        C679   1.298       .  A
O669       Zr675   2.442       .  S
O669        C680   1.294       .  A
O670       Zr675   2.447       .  S
O670        C681   1.294       .  A
O671       Zr705   2.430       .  S
O671        C681   1.290       .  A
O672       Zr704   2.441       .  S
O672        C680   1.293       .  A
O673       Zr675   2.428       .  S
O673        C679   1.290       .  A
O674       Zr675   2.436       .  S
O674        C678   1.291       .  A
Zr675       O676   2.333       .  S
Zr675       O677   2.342       .  S
Zr675       O685   2.338       .  S
Zr675       O683   2.340       .  S
O676       Zr702   2.333       .  S
O676       Zr705   2.342       .  S
O677       Zr703   2.335       .  S
O677       Zr704   2.342       .  S
C678       C3245   1.469       .  S
C679       C2412   1.493       .  S
C680       C2468   1.497       .  S
C681       C2300   1.499       .  S
H682        O683   0.966       .  S
O683       Zr702   2.332       .  S
O683       Zr704   2.346       .  S
H684        O685   0.967       .  S
O685       Zr703   2.345       .  S
O685       Zr705   2.342       .  S
O686       Zr702   2.453       .  S
O686        C709   1.295       .  A
O687       Zr703   2.436       .  S
O687        C710   1.291       .  A
O688       Zr704   2.433       .  S
O688        C711   1.292       .  A
O689       Zr705   2.436       .  S
O689        C712   1.292       .  A
O690       Zr705   2.436       .  S
O690        C713   1.292       .  A
O691       Zr704   2.444       .  S
O691        C714   1.294       .  A
O692       Zr706   2.431       .  S
O692        C715   1.290       .  A
O693       Zr706   2.415       .  S
O693        C716   1.286       .  A
O694       Zr704   2.459       .  S
O694        C715   1.296       .  A
O695       Zr705   2.447       .  S
O695        C716   1.292       .  A
O696       Zr702   2.426       .  S
O696        C711   1.290       .  A
O697       Zr703   2.442       .  S
O697        C714   1.293       .  A
O698       Zr703   2.425       .  S
O698        C713   1.290       .  A
O699       Zr702   2.422       .  S
O699        C712   1.289       .  A
O700       Zr706   2.430       .  S
O700        C709   1.290       .  A
O701       Zr706   2.429       .  S
O701        C710   1.289       .  A
Zr702       O708   2.345       .  S
Zr702       O720   2.346       .  S
Zr703       O707   2.331       .  S
Zr703       O718   2.339       .  S
Zr704       O708   2.340       .  S
Zr704       O718   2.339       .  S
Zr705       O707   2.329       .  S
Zr705       O720   2.336       .  S
Zr706       O707   2.333       .  S
Zr706       O708   2.336       .  S
Zr706       O720   2.336       .  S
Zr706       O718   2.339       .  S
C709       C2104   1.479       .  S
C710        C921   1.471       .  S
C711       C2020   1.494       .  S
C712       C2377   1.476       .  S
C713       C3196   1.491       .  S
C714       C3021   1.501       .  S
C715       C2972   1.508       .  S
C716        C984   1.511       .  S
H717        O718   0.966       .  S
H719        O720   0.966       .  S
C721        C722   1.406       .  A
C721        C726   1.409       .  A
C721        C739   1.452       .  S
C722        C727   1.495       .  S
C722        C723   1.408       .  A
C723        C724   1.413       .  A
C723        C728   1.451       .  S
C724        C725   1.424       .  A
C724        C740   1.452       .  S
C725        C726   1.426       .  A
C726        C729   1.452       .  S
C727        C730   1.411       .  A
C727        C734   1.410       .  A
C728        N745   1.157       .  T
C729        N747   1.158       .  T
C730        C731   1.410       .  A
C730        C735   1.451       .  S
C731        C732   1.413       .  A
C731        C737   1.451       .  S
C732        C733   1.414       .  A
C733        C734   1.410       .  A
C733        C736   1.451       .  S
C734        C738   1.451       .  S
C735        N742   1.157       .  T
C736        N743   1.157       .  T
C737        N741   1.157       .  T
C738        N744   1.157       .  T
C739        N748   1.157       .  T
C740        N746   1.158       .  T
C749        C750   1.410       .  A
C749        C754   1.406       .  A
C749        C767   1.451       .  S
C750        C755   1.491       .  S
C750        C751   1.412       .  A
C751        C752   1.409       .  A
C751        C756   1.450       .  S
C752        C753   1.409       .  A
C752        C768   1.450       .  S
C753        C754   1.412       .  A
C754        C757   1.450       .  S
C755        C758   1.413       .  A
C755        C762   1.410       .  A
C756        N773   1.157       .  T
C757        N775   1.157       .  T
C758        C759   1.408       .  A
C758        C763   1.450       .  S
C759        C760   1.409       .  A
C759        C765   1.451       .  S
C760        C761   1.411       .  A
C761        C762   1.407       .  A
C761        C764   1.450       .  S
C762        C766   1.450       .  S
C763        N770   1.157       .  T
C764        N771   1.157       .  T
C765        N769   1.157       .  T
C766        N772   1.157       .  T
C767        N776   1.157       .  T
C768        N774   1.157       .  T
C777        C778   1.412       .  A
C777        C782   1.414       .  A
C777        C795   1.452       .  S
C778        C783   1.502       .  S
C778        C779   1.410       .  A
C779        C780   1.412       .  A
C779        C784   1.451       .  S
C780        C781   1.420       .  A
C780        C796   1.451       .  S
C781        C782   1.420       .  A
C782        C785   1.451       .  S
C783        C786   1.415       .  A
C783        C790   1.414       .  A
C784        N801   1.157       .  T
C785        N803   1.158       .  T
C786        C787   1.412       .  A
C786        C791   1.451       .  S
C787        C788   1.412       .  A
C787        C793   1.451       .  S
C788        C789   1.409       .  A
C789        C790   1.411       .  A
C789        C792   1.451       .  S
C790        C794   1.449       .  S
C791        N798   1.157       .  T
C792        N799   1.157       .  T
C793        N797   1.157       .  T
C794        N800   1.157       .  T
C795        N804   1.157       .  T
C796        N802   1.157       .  T
C805        C806   1.411       .  A
C805        C810   1.409       .  A
C805        C823   1.450       .  S
C806        C811   1.489       .  S
C806        C807   1.408       .  A
C807        C808   1.407       .  A
C807        C812   1.450       .  S
C808        C809   1.411       .  A
C808        C824   1.451       .  S
C809        C810   1.409       .  A
C810        C813   1.450       .  S
C811        C814   1.408       .  A
C811        C818   1.406       .  A
C812        N829   1.157       .  T
C813        N831   1.157       .  T
C814        C815   1.410       .  A
C814        C819   1.452       .  S
C815        C816   1.421       .  A
C815        C821   1.450       .  S
C816        C817   1.420       .  A
C817        C818   1.406       .  A
C817        C820   1.451       .  S
C818        C822   1.452       .  S
C819        N826   1.157       .  T
C820        N827   1.157       .  T
C821        N825   1.157       .  T
C822        N828   1.157       .  T
C823        N832   1.157       .  T
C824        N830   1.157       .  T
C833        C834   1.410       .  A
C833        C838   1.413       .  A
C833        C851   1.451       .  S
C834        C839   1.502       .  S
C834        C835   1.410       .  A
C835        C836   1.413       .  A
C835        C840   1.453       .  S
C836        C837   1.426       .  A
C836        C852   1.452       .  S
C837        C838   1.421       .  A
C838        C841   1.452       .  S
C839        C842   1.414       .  A
C839        C846   1.413       .  A
C840        N857   1.157       .  T
C841        N859   1.158       .  T
C842        C843   1.412       .  A
C842        C847   1.450       .  S
C843        C844   1.411       .  A
C843        C849   1.450       .  S
C844        C845   1.414       .  A
C845        C846   1.411       .  A
C845        C848   1.452       .  S
C846        C850   1.451       .  S
C847        N854   1.157       .  T
C848        N855   1.157       .  T
C849        N853   1.157       .  T
C850        N856   1.157       .  T
C851        N860   1.157       .  T
C852        N858   1.158       .  T
C861        C862   1.410       .  A
C861        C866   1.413       .  A
C861        C879   1.451       .  S
C862        C867   1.498       .  S
C862        C863   1.407       .  A
C863        C864   1.412       .  A
C863        C868   1.451       .  S
C864        C865   1.421       .  A
C864        C880   1.449       .  S
C865        C866   1.420       .  A
C866        C869   1.450       .  S
C867        C870   1.410       .  A
C867        C874   1.410       .  A
C868        N885   1.157       .  T
C869        N887   1.157       .  T
C870        C871   1.414       .  A
C870        C875   1.450       .  S
C871        C872   1.415       .  A
C871        C877   1.450       .  S
C872        C873   1.418       .  A
C873        C874   1.411       .  A
C873        C876   1.452       .  S
C874        C878   1.452       .  S
C875        N882   1.157       .  T
C876        N883   1.158       .  T
C877        N881   1.157       .  T
C878        N884   1.157       .  T
C879        N888   1.157       .  T
C880        N886   1.156       .  T
C889        C890   1.409       .  A
C889        C894   1.410       .  A
C889        C907   1.451       .  S
C890        C895   1.495   1_556  S
C890        C891   1.409       .  A
C891        C892   1.411       .  A
C891        C896   1.451       .  S
C892        C893   1.418       .  A
C892        C908   1.451       .  S
C893        C894   1.417       .  A
C894        C897   1.451       .  S
C895        C898   1.409       .  A
C895        C902   1.411       .  A
C896        N913   1.157   1_556  T
C897        N915   1.157       .  T
C898        C899   1.409       .  A
C898        C903   1.450       .  S
C899        C900   1.414       .  A
C899        C905   1.451       .  S
C900        C901   1.414       .  A
C901        C902   1.411       .  A
C901        C904   1.451       .  S
C902        C906   1.451       .  S
C903        N910   1.157       .  T
C904        N911   1.157       .  T
C905        N909   1.157       .  T
C906        N912   1.157   1_554  T
C907        N916   1.157   1_556  T
C908        N914   1.158       .  T
C917        C918   1.413       .  A
C917        C922   1.410       .  A
C917        C935   1.450       .  S
C918        C923   1.496       .  S
C918        C919   1.412       .  A
C919        C920   1.408       .  A
C919        C924   1.451       .  S
C920        C921   1.411       .  A
C920        C936   1.452       .  S
C921        C922   1.409       .  A
C922        C925   1.451       .  S
C923        C926   1.406       .  A
C923        C930   1.406       .  A
C924        N941   1.157       .  T
C925        N943   1.157       .  T
C926        C927   1.413       .  A
C926        C931   1.453       .  S
C927        C928   1.429       .  A
C927        C933   1.452       .  S
C928        C929   1.430       .  A
C929        C930   1.411       .  A
C929        C932   1.452       .  S
C930        C934   1.454       .  S
C931        N938   1.157       .  T
C932        N939   1.158       .  T
C933        N937   1.158       .  T
C934        N940   1.157       .  T
C935        N944   1.157       .  T
C936        N942   1.157       .  T
C945        C946   1.411       .  A
C945        C950   1.410       .  A
C945        C963   1.451       .  S
C946        C951   1.498       .  S
C946        C947   1.411       .  A
C947        C948   1.412       .  A
C947        C952   1.450       .  S
C948        C949   1.414       .  A
C948        C964   1.450       .  S
C949        C950   1.416       .  A
C950        C953   1.452       .  S
C951        C954   1.408       .  A
C951        C958   1.408       .  A
C952        N969   1.157       .  T
C953        N971   1.158       .  T
C954        C955   1.412       .  A
C954        C959   1.451       .  S
C955        C956   1.422       .  A
C955        C961   1.451       .  S
C956        C957   1.422       .  A
C957        C958   1.413       .  A
C957        C960   1.451       .  S
C958        C962   1.452       .  S
C959        N966   1.157       .  T
C960        N967   1.157       .  T
C961        N965   1.157       .  T
C962        N968   1.157       .  T
C963        N972   1.157       .  T
C964        N970   1.157       .  T
C973        C974   1.409       .  A
C973        C978   1.409       .  A
C973        C991   1.450       .  S
C974        C979   1.490       .  S
C974        C975   1.411       .  A
C975        C976   1.406       .  A
C975        C980   1.451       .  S
C976        C977   1.411       .  A
C976        C992   1.452       .  S
C977        C978   1.414       .  A
C978        C981   1.451       .  S
C979        C982   1.403       .  A
C979        C986   1.406       .  A
C980        N997   1.157       .  T
C981        N999   1.157       .  T
C982        C983   1.405       .  A
C982        C987   1.454       .  S
C983        C984   1.430       .  A
C983        C989   1.452       .  S
C984        C985   1.427       .  A
C985        C986   1.413       .  A
C985        C988   1.451       .  S
C986        C990   1.451       .  S
C987        N994   1.157       .  T
C988        N995   1.158       .  T
C989        N993   1.157       .  T
C990        N996   1.157       .  T
C991       N1000   1.157       .  T
C992        N998   1.157       .  T
C1001      C1002   1.412       .  A
C1001      C1006   1.408       .  A
C1001      C1019   1.451       .  S
C1002      C1007   1.490       .  S
C1002      C1003   1.410       .  A
C1003      C1004   1.408       .  A
C1003      C1008   1.450       .  S
C1004      C1005   1.411       .  A
C1004      C1020   1.452       .  S
C1005      C1006   1.409       .  A
C1006      C1009   1.452       .  S
C1007      C1010   1.409       .  A
C1007      C1014   1.410       .  A
C1008      N1025   1.157       .  T
C1009      N1027   1.158       .  T
C1010      C1011   1.408       .  A
C1010      C1015   1.451       .  S
C1011      C1012   1.416       .  A
C1011      C1017   1.452       .  S
C1012      C1013   1.415       .  A
C1013      C1014   1.410       .  A
C1013      C1016   1.451       .  S
C1014      C1018   1.451       .  S
C1015      N1022   1.157       .  T
C1016      N1023   1.157       .  T
C1017      N1021   1.157       .  T
C1018      N1024   1.157       .  T
C1019      N1028   1.157       .  T
C1020      N1026   1.157       .  T
C1029      C1030   1.409       .  A
C1029      C1034   1.411       .  A
C1029      C1047   1.450       .  S
C1030      C1035   1.494       .  S
C1030      C1031   1.411       .  A
C1031      C1032   1.411       .  A
C1031      C1036   1.452       .  S
C1032      C1033   1.413       .  A
C1032      C1048   1.450       .  S
C1033      C1034   1.415       .  A
C1034      C1037   1.450       .  S
C1035      C1038   1.408       .  A
C1035      C1042   1.408       .  A
C1036      N1053   1.157       .  T
C1037      N1055   1.157       .  T
C1038      C1039   1.409       .  A
C1038      C1043   1.450       .  S
C1039      C1040   1.418       .  A
C1039      C1045   1.451       .  S
C1040      C1041   1.423       .  A
C1041      C1042   1.410       .  A
C1041      C1044   1.453       .  S
C1042      C1046   1.451       .  S
C1043      N1050   1.157       .  T
C1044      N1051   1.158       .  T
C1045      N1049   1.157       .  T
C1046      N1052   1.157       .  T
C1047      N1056   1.157       .  T
C1048      N1054   1.157       .  T
C1057      C1058   1.412       .  A
C1057      C1062   1.411       .  A
C1057      C1075   1.450       .  S
C1058      C1063   1.505       .  S
C1058      C1059   1.415       .  A
C1059      C1060   1.416       .  A
C1059      C1064   1.451       .  S
C1060      C1061   1.412       .  A
C1060      C1076   1.450       .  S
C1061      C1062   1.412       .  A
C1062      C1065   1.450       .  S
C1063      C1066   1.410       .  A
C1063      C1070   1.410       .  A
C1064      N1081   1.157       .  T
C1065      N1083   1.157       .  T
C1066      C1067   1.415       .  A
C1066      C1071   1.452       .  S
C1067      C1068   1.423       .  A
C1067      C1073   1.451       .  S
C1068      C1069   1.422       .  A
C1069      C1070   1.414       .  A
C1069      C1072   1.452       .  S
C1070      C1074   1.451       .  S
C1071      N1078   1.157       .  T
C1072      N1079   1.158       .  T
C1073      N1077   1.157       .  T
C1074      N1080   1.157       .  T
C1075      N1084   1.157       .  T
C1076      N1082   1.157       .  T
C1085      C1086   1.412       .  A
C1085      C1090   1.407       .  A
C1085      C1103   1.451       .  S
C1086      C1091   1.503       .  S
C1086      C1087   1.416       .  A
C1087      C1088   1.416       .  A
C1087      C1092   1.451       .  S
C1088      C1089   1.412       .  A
C1088      C1104   1.450       .  S
C1089      C1090   1.412       .  A
C1090      C1093   1.452       .  S
C1091      C1094   1.412       .  A
C1091      C1098   1.410       .  A
C1092      N1109   1.157       .  T
C1093      N1111   1.157       .  T
C1094      C1095   1.412       .  A
C1094      C1099   1.451       .  S
C1095      C1096   1.419       .  A
C1095      C1101   1.452       .  S
C1096      C1097   1.422       .  A
C1097      C1098   1.414       .  A
C1097      C1100   1.450       .  S
C1098      C1102   1.451       .  S
C1099      N1106   1.157       .  T
C1100      N1107   1.157       .  T
C1101      N1105   1.158       .  T
C1102      N1108   1.157       .  T
C1103      N1112   1.157       .  T
C1104      N1110   1.158       .  T
C1113      C1114   1.411       .  A
C1113      C1118   1.410       .  A
C1113      C1131   1.451       .  S
C1114      C1119   1.494       .  S
C1114      C1115   1.410       .  A
C1115      C1116   1.409       .  A
C1115      C1120   1.451       .  S
C1116      C1117   1.412       .  A
C1116      C1132   1.449       .  S
C1117      C1118   1.413       .  A
C1118      C1121   1.449       .  S
C1119      C1122   1.409       .  A
C1119      C1126   1.410       .  A
C1120      N1137   1.157       .  T
C1121      N1139   1.156       .  T
C1122      C1123   1.411       .  A
C1122      C1127   1.451       .  S
C1123      C1124   1.418       .  A
C1123      C1129   1.451       .  S
C1124      C1125   1.415       .  A
C1125      C1126   1.410       .  A
C1125      C1128   1.451       .  S
C1126      C1130   1.451       .  S
C1127      N1134   1.157       .  T
C1128      N1135   1.157       .  T
C1129      N1133   1.157       .  T
C1130      N1136   1.157       .  T
C1131      N1140   1.157       .  T
C1132      N1138   1.156       .  T
C1141      C1142   1.413       .  A
C1141      C1146   1.417       .  A
C1141      C1159   1.450       .  S
C1142      C1147   1.512       .  S
C1142      C1143   1.413       .  A
C1143      C1144   1.417       .  A
C1143      C1148   1.450       .  S
C1144      C1145   1.416       .  A
C1144      C1160   1.450       .  S
C1145      C1146   1.417       .  A
C1146      C1149   1.451       .  S
C1147      C1150   1.412       .  A
C1147      C1154   1.412       .  A
C1148      N1165   1.157       .  T
C1149      N1167   1.157       .  T
C1150      C1151   1.418       .  A
C1150      C1155   1.451       .  S
C1151      C1152   1.421       .  A
C1151      C1157   1.450       .  S
C1152      C1153   1.421       .  A
C1153      C1154   1.418       .  A
C1153      C1156   1.451       .  S
C1154      C1158   1.451       .  S
C1155      N1162   1.157       .  T
C1156      N1163   1.157       .  T
C1157      N1161   1.157       .  T
C1158      N1164   1.157       .  T
C1159      N1168   1.157       .  T
C1160      N1166   1.157       .  T
C1169      C1170   1.410       .  A
C1169      C1174   1.410       .  A
C1169      C1187   1.449       .  S
C1170      C1175   1.490       .  S
C1170      C1171   1.412       .  A
C1171      C1172   1.405       .  A
C1171      C1176   1.452       .  S
C1172      C1173   1.411       .  A
C1172      C1188   1.451       .  S
C1173      C1174   1.412       .  A
C1174      C1177   1.450       .  S
C1175      C1178   1.408       .  A
C1175      C1182   1.408       .  A
C1176      N1193   1.157       .  T
C1177      N1195   1.157       .  T
C1178      C1179   1.406       .  A
C1178      C1183   1.453       .  S
C1179      C1180   1.420       .  A
C1179      C1185   1.453       .  S
C1180      C1181   1.417       .  A
C1181      C1182   1.411       .  A
C1181      C1184   1.450       .  S
C1182      C1186   1.450       .  S
C1183      N1190   1.157       .  T
C1184      N1191   1.157       .  T
C1185      N1189   1.158       .  T
C1186      N1192   1.157       .  T
C1187      N1196   1.157       .  T
C1188      N1194   1.157       .  T
C1197      C1198   1.411       .  A
C1197      C1202   1.407       .  A
C1197      C1215   1.452       .  S
C1198      C1203   1.492       .  S
C1198      C1199   1.410       .  A
C1199      C1200   1.409       .  A
C1199      C1204   1.449       .  S
C1200      C1201   1.413       .  A
C1200      C1216   1.451       .  S
C1201      C1202   1.413       .  A
C1202      C1205   1.451       .  S
C1203      C1206   1.408       .  A
C1203      C1210   1.411       .  A
C1204      N1221   1.157       .  T
C1205      N1223   1.157       .  T
C1206      C1207   1.406       .  A
C1206      C1211   1.452       .  S
C1207      C1208   1.416       .  A
C1207      C1213   1.448       .  S
C1208      C1209   1.418       .  A
C1209      C1210   1.411       .  A
C1209      C1212   1.452       .  S
C1210      C1214   1.451       .  S
C1211      N1218   1.157       .  T
C1212      N1219   1.158       .  T
C1213      N1217   1.156       .  T
C1214      N1220   1.157       .  T
C1215      N1224   1.157       .  T
C1216      N1222   1.157       .  T
C1225      C1226   1.412       .  A
C1225      C1230   1.412       .  A
C1225      C1243   1.450       .  S
C1226      C1231   1.498       .  S
C1226      C1227   1.411       .  A
C1227      C1228   1.411       .  A
C1227      C1232   1.450       .  S
C1228      C1229   1.412       .  A
C1228      C1244   1.450       .  S
C1229      C1230   1.414       .  A
C1230      C1233   1.451       .  S
C1231      C1234   1.408   1_565  A
C1231      C1238   1.409   1_565  A
C1232      N1249   1.157       .  T
C1233      N1251   1.157       .  T
C1234      C1235   1.412       .  A
C1234      C1239   1.451   1_545  S
C1235      C1236   1.422       .  A
C1235      C1241   1.451       .  S
C1236      C1237   1.420       .  A
C1237      C1238   1.413       .  A
C1237      C1240   1.451       .  S
C1238      C1242   1.451   1_545  S
C1239      N1246   1.157       .  T
C1240      N1247   1.158       .  T
C1241      N1245   1.157       .  T
C1242      N1248   1.157       .  T
C1243      N1252   1.157       .  T
C1244      N1250   1.157       .  T
C1253      C1254   1.411       .  A
C1253      C1258   1.412       .  A
C1253      C1271   1.451       .  S
C1254      C1259   1.498       .  S
C1254      C1255   1.409       .  A
C1255      C1256   1.410       .  A
C1255      C1260   1.450       .  S
C1256      C1257   1.416       .  A
C1256      C1272   1.451       .  S
C1257      C1258   1.416       .  A
C1258      C1261   1.451       .  S
C1259      C1262   1.408       .  A
C1259      C1266   1.408       .  A
C1260      N1277   1.157       .  T
C1261      N1279   1.157       .  T
C1262      C1263   1.414       .  A
C1262      C1267   1.451       .  S
C1263      C1264   1.422       .  A
C1263      C1269   1.451       .  S
C1264      C1265   1.420       .  A
C1265      C1266   1.411       .  A
C1265      C1268   1.450       .  S
C1266      C1270   1.452       .  S
C1267      N1274   1.157       .  T
C1268      N1275   1.157       .  T
C1269      N1273   1.157       .  T
C1270      N1276   1.157       .  T
C1271      N1280   1.157       .  T
C1272      N1278   1.157       .  T
C1281      C1282   1.410       .  A
C1281      C1286   1.408       .  A
C1281      C1299   1.450       .  S
C1282      C1287   1.493       .  S
C1282      C1283   1.413       .  A
C1283      C1284   1.410       .  A
C1283      C1288   1.451       .  S
C1284      C1285   1.410       .  A
C1284      C1300   1.450       .  S
C1285      C1286   1.411       .  A
C1286      C1289   1.451       .  S
C1287      C1290   1.408       .  A
C1287      C1294   1.406       .  A
C1288      N1305   1.157       .  T
C1289      N1307   1.157       .  T
C1290      C1291   1.411       .  A
C1290      C1295   1.450       .  S
C1291      C1292   1.419       .  A
C1291      C1297   1.449       .  S
C1292      C1293   1.418       .  A
C1293      C1294   1.408       .  A
C1293      C1296   1.448       .  S
C1294      C1298   1.451       .  S
C1295      N1302   1.157       .  T
C1296      N1303   1.156       .  T
C1297      N1301   1.157       .  T
C1298      N1304   1.157       .  T
C1299      N1308   1.157       .  T
C1300      N1306   1.157       .  T
C1309      C1310   1.409       .  A
C1309      C1314   1.406       .  A
C1309      C1327   1.451       .  S
C1310      C1315   1.489       .  S
C1310      C1311   1.412       .  A
C1311      C1312   1.410       .  A
C1311      C1316   1.451       .  S
C1312      C1313   1.409       .  A
C1312      C1328   1.450       .  S
C1313      C1314   1.413       .  A
C1314      C1317   1.451       .  S
C1315      C1318   1.405       .  A
C1315      C1322   1.407       .  A
C1316      N1333   1.157       .  T
C1317      N1335   1.157       .  T
C1318      C1319   1.406       .  A
C1318      C1323   1.453       .  S
C1319      C1320   1.425       .  A
C1319      C1325   1.453       .  S
C1320      C1321   1.422       .  A
C1321      C1322   1.411       .  A
C1321      C1324   1.450       .  S
C1322      C1326   1.452       .  S
C1323      N1330   1.157       .  T
C1324      N1331   1.157       .  T
C1325      N1329   1.158       .  T
C1326      N1332   1.157       .  T
C1327      N1336   1.157       .  T
C1328      N1334   1.157       .  T
C1337      C1338   1.412       .  A
C1337      C1342   1.410       .  A
C1337      C1355   1.449       .  S
C1338      C1343   1.495       .  S
C1338      C1339   1.412       .  A
C1339      C1340   1.407       .  A
C1339      C1344   1.451       .  S
C1340      C1341   1.411       .  A
C1340      C1356   1.452       .  S
C1341      C1342   1.410       .  A
C1342      C1345   1.451       .  S
C1343      C1346   1.407       .  A
C1343      C1350   1.408       .  A
C1344      N1361   1.157       .  T
C1345      N1363   1.157       .  T
C1346      C1347   1.412       .  A
C1346      C1351   1.452       .  S
C1347      C1348   1.424       .  A
C1347      C1353   1.451       .  S
C1348      C1349   1.424       .  A
C1349      C1350   1.412       .  A
C1349      C1352   1.451       .  S
C1350      C1354   1.452       .  S
C1351      N1358   1.157       .  T
C1352      N1359   1.158       .  T
C1353      N1357   1.158       .  T
C1354      N1360   1.157       .  T
C1355      N1364   1.157       .  T
C1356      N1362   1.157       .  T
C1365      C1366   1.411       .  A
C1365      C1370   1.411       .  A
C1365      C1383   1.450       .  S
C1366      C1371   1.501   1_556  S
C1366      C1367   1.412       .  A
C1367      C1368   1.415       .  A
C1367      C1372   1.450       .  S
C1368      C1369   1.414       .  A
C1368      C1384   1.450       .  S
C1369      C1370   1.413       .  A
C1370      C1373   1.451       .  S
C1371      C1374   1.407       .  A
C1371      C1378   1.407       .  A
C1372      N1389   1.157       .  T
C1373      N1391   1.157       .  T
C1374      C1375   1.415       .  A
C1374      C1379   1.451       .  S
C1375      C1376   1.427       .  A
C1375      C1381   1.452       .  S
C1376      C1377   1.426       .  A
C1377      C1378   1.414       .  A
C1377      C1380   1.449       .  S
C1378      C1382   1.453       .  S
C1379      N1386   1.157       .  T
C1380      N1387   1.157       .  T
C1381      N1385   1.158       .  T
C1382      N1388   1.157   1_554  T
C1383      N1392   1.157       .  T
C1384      N1390   1.157       .  T
C1393      C1394   1.412       .  A
C1393      C1398   1.418       .  A
C1393      C1411   1.451       .  S
C1394      C1399   1.510       .  S
C1394      C1395   1.410       .  A
C1395      C1396   1.415       .  A
C1395      C1400   1.452       .  S
C1396      C1397   1.426       .  A
C1396      C1412   1.452       .  S
C1397      C1398   1.422       .  A
C1398      C1401   1.449       .  S
C1399      C1402   1.415       .  A
C1399      C1406   1.416       .  A
C1400      N1417   1.157       .  T
C1401      N1419   1.157       .  T
C1402      C1403   1.414       .  A
C1402      C1407   1.451       .  S
C1403      C1404   1.414       .  A
C1403      C1409   1.451       .  S
C1404      C1405   1.410       .  A
C1405      C1406   1.414       .  A
C1405      C1408   1.450       .  S
C1406      C1410   1.450       .  S
C1407      N1414   1.157       .  T
C1408      N1415   1.157       .  T
C1409      N1413   1.157       .  T
C1410      N1416   1.157       .  T
C1411      N1420   1.157       .  T
C1412      N1418   1.158       .  T
C1421      C1422   1.410       .  A
C1421      C1426   1.405       .  A
C1421      C1439   1.452       .  S
C1422      C1427   1.485       .  S
C1422      C1423   1.407       .  A
C1423      C1424   1.408       .  A
C1423      C1428   1.450       .  S
C1424      C1425   1.415       .  A
C1424      C1440   1.451       .  S
C1425      C1426   1.415       .  A
C1426      C1429   1.452       .  S
C1427      C1430   1.406       .  A
C1427      C1434   1.407       .  A
C1428      N1445   1.157       .  T
C1429      N1447   1.157       .  T
C1430      C1431   1.410       .  A
C1430      C1435   1.450       .  S
C1431      C1432   1.418       .  A
C1431      C1437   1.450       .  S
C1432      C1433   1.422       .  A
C1433      C1434   1.405       .  A
C1433      C1436   1.452       .  S
C1434      C1438   1.453       .  S
C1435      N1442   1.157       .  T
C1436      N1443   1.158       .  T
C1437      N1441   1.157       .  T
C1438      N1444   1.157       .  T
C1439      N1448   1.157       .  T
C1440      N1446   1.157       .  T
C1449      C1450   1.409       .  A
C1449      C1454   1.406       .  A
C1449      C1467   1.453       .  S
C1450      C1455   1.487       .  S
C1450      C1451   1.408       .  A
C1451      C1452   1.407       .  A
C1451      C1456   1.452       .  S
C1452      C1453   1.416       .  A
C1452      C1468   1.450       .  S
C1453      C1454   1.415       .  A
C1454      C1457   1.451       .  S
C1455      C1458   1.407       .  A
C1455      C1462   1.404       .  A
C1456      N1473   1.157       .  T
C1457      N1475   1.157       .  T
C1458      C1459   1.408       .  A
C1458      C1463   1.452       .  S
C1459      C1460   1.423       .  A
C1459      C1465   1.452       .  S
C1460      C1461   1.427       .  A
C1461      C1462   1.406       .  A
C1461      C1464   1.453       .  S
C1462      C1466   1.453       .  S
C1463      N1470   1.157       .  T
C1464      N1471   1.157       .  T
C1465      N1469   1.158       .  T
C1466      N1472   1.157       .  T
C1467      N1476   1.157       .  T
C1468      N1474   1.157       .  T
C1477      C1478   1.410       .  A
C1477      C1482   1.412       .  A
C1477      C1495   1.451       .  S
C1478      C1483   1.495       .  S
C1478      C1479   1.408       .  A
C1479      C1480   1.409       .  A
C1479      C1484   1.453       .  S
C1480      C1481   1.421       .  A
C1480      C1496   1.452       .  S
C1481      C1482   1.418       .  A
C1482      C1485   1.451       .  S
C1483      C1486   1.408       .  A
C1483      C1490   1.409       .  A
C1484      N1501   1.157       .  T
C1485      N1503   1.157       .  T
C1486      C1487   1.409       .  A
C1486      C1491   1.453       .  S
C1487      C1488   1.423       .  A
C1487      C1493   1.451       .  S
C1488      C1489   1.420       .  A
C1489      C1490   1.411       .  A
C1489      C1492   1.452       .  S
C1490      C1494   1.451       .  S
C1491      N1498   1.157       .  T
C1492      N1499   1.158       .  T
C1493      N1497   1.157       .  T
C1494      N1500   1.157       .  T
C1495      N1504   1.157       .  T
C1496      N1502   1.158       .  T
C1505      C1506   1.409       .  A
C1505      C1510   1.413       .  A
C1505      C1523   1.452       .  S
C1506      C1511   1.499       .  S
C1506      C1507   1.407       .  A
C1507      C1508   1.412       .  A
C1507      C1512   1.452       .  S
C1508      C1509   1.426       .  A
C1508      C1524   1.452       .  S
C1509      C1510   1.424       .  A
C1510      C1513   1.451       .  S
C1511      C1514   1.413       .  A
C1511      C1518   1.412       .  A
C1512      N1529   1.157       .  T
C1513      N1531   1.158       .  T
C1514      C1515   1.413       .  A
C1514      C1519   1.450       .  S
C1515      C1516   1.411       .  A
C1515      C1521   1.450       .  S
C1516      C1517   1.411       .  A
C1517      C1518   1.409       .  A
C1517      C1520   1.451       .  S
C1518      C1522   1.451       .  S
C1519      N1526   1.157       .  T
C1520      N1527   1.157       .  T
C1521      N1525   1.158       .  T
C1522      N1528   1.157       .  T
C1523      N1532   1.157       .  T
C1524      N1530   1.158       .  T
C1533      C1534   1.412       .  A
C1533      C1538   1.405       .  A
C1533      C1551   1.452       .  S
C1534      C1539   1.489       .  S
C1534      C1535   1.409       .  A
C1535      C1536   1.410       .  A
C1535      C1540   1.450       .  S
C1536      C1537   1.412       .  A
C1536      C1552   1.450       .  S
C1537      C1538   1.409       .  A
C1538      C1541   1.451       .  S
C1539      C1542   1.406       .  A
C1539      C1546   1.407       .  A
C1540      N1557   1.157       .  T
C1541      N1559   1.157       .  T
C1542      C1543   1.410       .  A
C1542      C1547   1.451       .  S
C1543      C1544   1.419       .  A
C1543      C1549   1.451       .  S
C1544      C1545   1.421       .  A
C1545      C1546   1.409       .  A
C1545      C1548   1.451       .  S
C1546      C1550   1.452       .  S
C1547      N1554   1.157       .  T
C1548      N1555   1.157       .  T
C1549      N1553   1.157       .  T
C1550      N1556   1.157       .  T
C1551      N1560   1.157       .  T
C1552      N1558   1.157       .  T
C1561      C1562   1.407       .  A
C1561      C1566   1.409       .  A
C1561      C1579   1.452       .  S
C1562      C1567   1.486       .  S
C1562      C1563   1.405       .  A
C1563      C1564   1.407       .  A
C1563      C1568   1.452       .  S
C1564      C1565   1.422       .  A
C1564      C1580   1.452       .  S
C1565      C1566   1.420       .  A
C1566      C1569   1.450       .  S
C1567      C1570   1.410       .  A
C1567      C1574   1.410       .  A
C1568      N1585   1.157       .  T
C1569      N1587   1.157       .  T
C1570      C1571   1.406       .  A
C1570      C1575   1.451       .  S
C1571      C1572   1.410       .  A
C1571      C1577   1.452       .  S
C1572      C1573   1.412       .  A
C1573      C1574   1.407       .  A
C1573      C1576   1.452       .  S
C1574      C1578   1.451       .  S
C1575      N1582   1.157       .  T
C1576      N1583   1.157       .  T
C1577      N1581   1.157       .  T
C1578      N1584   1.157       .  T
C1579      N1588   1.157       .  T
C1580      N1586   1.158       .  T
C1589      C1590   1.409       .  A
C1589      C1594   1.402       .  A
C1589      C1607   1.452       .  S
C1590      C1595   1.484       .  S
C1590      C1591   1.410       .  A
C1591      C1592   1.410       .  A
C1591      C1596   1.450       .  S
C1592      C1593   1.411       .  A
C1592      C1608   1.449       .  S
C1593      C1594   1.409       .  A
C1594      C1597   1.451       .  S
C1595      C1598   1.404       .  A
C1595      C1602   1.407       .  A
C1596      N1613   1.157       .  T
C1597      N1615   1.157       .  T
C1598      C1599   1.405       .  A
C1598      C1603   1.453       .  S
C1599      C1600   1.423       .  A
C1599      C1605   1.451       .  S
C1600      C1601   1.421       .  A
C1601      C1602   1.409       .  A
C1601      C1604   1.452       .  S
C1602      C1606   1.452       .  S
C1603      N1610   1.157       .  T
C1604      N1611   1.157       .  T
C1605      N1609   1.157       .  T
C1606      N1612   1.157       .  T
C1607      N1616   1.157       .  T
C1608      N1614   1.157       .  T
C1617      C1618   1.410       .  A
C1617      C1622   1.413       .  A
C1617      C1635   1.450       .  S
C1618      C1623   1.491       .  S
C1618      C1619   1.405       .  A
C1619      C1620   1.404       .  A
C1619      C1624   1.454       .  S
C1620      C1621   1.421       .  A
C1620      C1636   1.449       .  S
C1621      C1622   1.417       .  A
C1622      C1625   1.450       .  S
C1623      C1626   1.409       .  A
C1623      C1630   1.407       .  A
C1624      N1641   1.157       .  T
C1625      N1643   1.157       .  T
C1626      C1627   1.406       .  A
C1626      C1631   1.451       .  S
C1627      C1628   1.418       .  A
C1627      C1633   1.452       .  S
C1628      C1629   1.422       .  A
C1629      C1630   1.410       .  A
C1629      C1632   1.452       .  S
C1630      C1634   1.451       .  S
C1631      N1638   1.157       .  T
C1632      N1639   1.158       .  T
C1633      N1637   1.157       .  T
C1634      N1640   1.157       .  T
C1635      N1644   1.157       .  T
C1636      N1642   1.156       .  T
C1645      C1646   1.408       .  A
C1645      C1650   1.413       .  A
C1645      C1663   1.452       .  S
C1646      C1651   1.506       .  S
C1646      C1647   1.411       .  A
C1647      C1648   1.419       .  A
C1647      C1652   1.450       .  S
C1648      C1649   1.423       .  A
C1648      C1664   1.451       .  S
C1649      C1650   1.422       .  A
C1650      C1653   1.450       .  S
C1651      C1654   1.414       .  A
C1651      C1658   1.412       .  A
C1652      N1669   1.157       .  T
C1653      N1671   1.157       .  T
C1654      C1655   1.417       .  A
C1654      C1659   1.450       .  S
C1655      C1656   1.413       .  A
C1655      C1661   1.449       .  S
C1656      C1657   1.414       .  A
C1657      C1658   1.413       .  A
C1657      C1660   1.451       .  S
C1658      C1662   1.450       .  S
C1659      N1666   1.157       .  T
C1660      N1667   1.157       .  T
C1661      N1665   1.157       .  T
C1662      N1668   1.157       .  T
C1663      N1672   1.157       .  T
C1664      N1670   1.158       .  T
C1673      C1674   1.412       .  A
C1673      C1678   1.411       .  A
C1673      C1691   1.451       .  S
C1674      C1679   1.497       .  S
C1674      C1675   1.411       .  A
C1675      C1676   1.410       .  A
C1675      C1680   1.450       .  S
C1676      C1677   1.411       .  A
C1676      C1692   1.450       .  S
C1677      C1678   1.411       .  A
C1678      C1681   1.450       .  S
C1679      C1682   1.407       .  A
C1679      C1686   1.409       .  A
C1680      N1697   1.157       .  T
C1681      N1699   1.157       .  T
C1682      C1683   1.411   1_455  A
C1682      C1687   1.452       .  S
C1683      C1684   1.425       .  A
C1683      C1689   1.452       .  S
C1684      C1685   1.421       .  A
C1685      C1686   1.412   1_655  A
C1685      C1688   1.450       .  S
C1686      C1690   1.451       .  S
C1687      N1694   1.157       .  T
C1688      N1695   1.157       .  T
C1689      N1693   1.158       .  T
C1690      N1696   1.157       .  T
C1691      N1700   1.157       .  T
C1692      N1698   1.157       .  T
C1701      C1702   1.411       .  A
C1701      C1706   1.413       .  A
C1701      C1719   1.451       .  S
C1702      C1707   1.504       .  S
C1702      C1703   1.411       .  A
C1703      C1704   1.415       .  A
C1703      C1708   1.450       .  S
C1704      C1705   1.417       .  A
C1704      C1720   1.451       .  S
C1705      C1706   1.415       .  A
C1706      C1709   1.450       .  S
C1707      C1710   1.409       .  A
C1707      C1714   1.409       .  A
C1708      N1725   1.157       .  T
C1709      N1727   1.157       .  T
C1710      C1711   1.417       .  A
C1710      C1715   1.450       .  S
C1711      C1712   1.422       .  A
C1711      C1717   1.451       .  S
C1712      C1713   1.421       .  A
C1713      C1714   1.414       .  A
C1713      C1716   1.449       .  S
C1714      C1718   1.452       .  S
C1715      N1722   1.157       .  T
C1716      N1723   1.157       .  T
C1717      N1721   1.158       .  T
C1718      N1724   1.157       .  T
C1719      N1728   1.157       .  T
C1720      N1726   1.157       .  T
C1729      C1730   1.412       .  A
C1729      C1734   1.412       .  A
C1729      C1747   1.450       .  S
C1730      C1735   1.493       .  S
C1730      C1731   1.409       .  A
C1731      C1732   1.406       .  A
C1731      C1736   1.451       .  S
C1732      C1733   1.412       .  A
C1732      C1748   1.449       .  S
C1733      C1734   1.412       .  A
C1734      C1737   1.451       .  S
C1735      C1738   1.407       .  A
C1735      C1742   1.408       .  A
C1736      N1753   1.157       .  T
C1737      N1755   1.157       .  T
C1738      C1739   1.409       .  A
C1738      C1743   1.452       .  S
C1739      C1740   1.423       .  A
C1739      C1745   1.451       .  S
C1740      C1741   1.422       .  A
C1741      C1742   1.411       .  A
C1741      C1744   1.452       .  S
C1742      C1746   1.452       .  S
C1743      N1750   1.157       .  T
C1744      N1751   1.158       .  T
C1745      N1749   1.158       .  T
C1746      N1752   1.157       .  T
C1747      N1756   1.157       .  T
C1748      N1754   1.156       .  T
C1757      C1758   1.411       .  A
C1757      C1762   1.416       .  A
C1757      C1775   1.450       .  S
C1758      C1763   1.501       .  S
C1758      C1759   1.408       .  A
C1759      C1760   1.410       .  A
C1759      C1764   1.453       .  S
C1760      C1761   1.422       .  A
C1760      C1776   1.449       .  S
C1761      C1762   1.420       .  A
C1762      C1765   1.451       .  S
C1763      C1766   1.413       .  A
C1763      C1770   1.412       .  A
C1764      N1781   1.157       .  T
C1765      N1783   1.158       .  T
C1766      C1767   1.412       .  A
C1766      C1771   1.451       .  S
C1767      C1768   1.414       .  A
C1767      C1773   1.451       .  S
C1768      C1769   1.412       .  A
C1769      C1770   1.413       .  A
C1769      C1772   1.450       .  S
C1770      C1774   1.450       .  S
C1771      N1778   1.157       .  T
C1772      N1779   1.157       .  T
C1773      N1777   1.157       .  T
C1774      N1780   1.157       .  T
C1775      N1784   1.157       .  T
C1776      N1782   1.156       .  T
C1785      C1786   1.409       .  A
C1785      C1790   1.412       .  A
C1785      C1803   1.450       .  S
C1786      C1791   1.493       .  S
C1786      C1787   1.410       .  A
C1787      C1788   1.407       .  A
C1787      C1792   1.452       .  S
C1788      C1789   1.416       .  A
C1788      C1804   1.452       .  S
C1789      C1790   1.417       .  A
C1790      C1793   1.450       .  S
C1791      C1794   1.408       .  A
C1791      C1798   1.408       .  A
C1792      N1809   1.157       .  T
C1793      N1811   1.157       .  T
C1794      C1795   1.408       .  A
C1794      C1799   1.453       .  S
C1795      C1796   1.423       .  A
C1795      C1801   1.452       .  S
C1796      C1797   1.419       .  A
C1797      C1798   1.412       .  A
C1797      C1800   1.451       .  S
C1798      C1802   1.450       .  S
C1799      N1806   1.157       .  T
C1800      N1807   1.157       .  T
C1801      N1805   1.158       .  T
C1802      N1808   1.157       .  T
C1803      N1812   1.157       .  T
C1804      N1810   1.157       .  T
C1813      C1814   1.406       .  A
C1813      C1818   1.409       .  A
C1813      C1831   1.452       .  S
C1814      C1819   1.494       .  S
C1814      C1815   1.407       .  A
C1815      C1816   1.412       .  A
C1815      C1820   1.451       .  S
C1816      C1817   1.424       .  A
C1816      C1832   1.451       .  S
C1817      C1818   1.425       .  A
C1818      C1821   1.452       .  S
C1819      C1822   1.409       .  A
C1819      C1826   1.410       .  A
C1820      N1837   1.157       .  T
C1821      N1839   1.158       .  T
C1822      C1823   1.411       .  A
C1822      C1827   1.450       .  S
C1823      C1824   1.418       .  A
C1823      C1829   1.451       .  S
C1824      C1825   1.418       .  A
C1825      C1826   1.407       .  A
C1825      C1828   1.451       .  S
C1826      C1830   1.453       .  S
C1827      N1834   1.157       .  T
C1828      N1835   1.157       .  T
C1829      N1833   1.157       .  T
C1830      N1836   1.157       .  T
C1831      N1840   1.157       .  T
C1832      N1838   1.158       .  T
C1841      C1842   1.407       .  A
C1841      C1846   1.410       .  A
C1841      C1859   1.451       .  S
C1842      C1847   1.490       .  S
C1842      C1843   1.407       .  A
C1843      C1844   1.407       .  A
C1843      C1848   1.453       .  S
C1844      C1845   1.422       .  A
C1844      C1860   1.452       .  S
C1845      C1846   1.421       .  A
C1846      C1849   1.452       .  S
C1847      C1850   1.407       .  A
C1847      C1854   1.405       .  A
C1848      N1865   1.157       .  T
C1849      N1867   1.157       .  T
C1850      C1851   1.410       .  A
C1850      C1855   1.452       .  S
C1851      C1852   1.423       .  A
C1851      C1857   1.452       .  S
C1852      C1853   1.423       .  A
C1853      C1854   1.408       .  A
C1853      C1856   1.449       .  S
C1854      C1858   1.453       .  S
C1855      N1862   1.157       .  T
C1856      N1863   1.157       .  T
C1857      N1861   1.157       .  T
C1858      N1864   1.157       .  T
C1859      N1868   1.157       .  T
C1860      N1866   1.157       .  T
C1869      C1870   1.409       .  A
C1869      C1874   1.412       .  A
C1869      C1887   1.451       .  S
C1870      C1875   1.498       .  S
C1870      C1871   1.408       .  A
C1871      C1872   1.412       .  A
C1871      C1876   1.452       .  S
C1872      C1873   1.423       .  A
C1872      C1888   1.451       .  S
C1873      C1874   1.422       .  A
C1874      C1877   1.451       .  S
C1875      C1878   1.411       .  A
C1875      C1882   1.409       .  A
C1876      N1893   1.157       .  T
C1877      N1895   1.157       .  T
C1878      C1879   1.414       .  A
C1878      C1883   1.450       .  S
C1879      C1880   1.417       .  A
C1879      C1885   1.451       .  S
C1880      C1881   1.419       .  A
C1881      C1882   1.409       .  A
C1881      C1884   1.451       .  S
C1882      C1886   1.452       .  S
C1883      N1890   1.157       .  T
C1884      N1891   1.157       .  T
C1885      N1889   1.157       .  T
C1886      N1892   1.157       .  T
C1887      N1896   1.157       .  T
C1888      N1894   1.157       .  T
C1897      C1898   1.408       .  A
C1897      C1902   1.408       .  A
C1897      C1915   1.452       .  S
C1898      C1903   1.488       .  S
C1898      C1899   1.409       .  A
C1899      C1900   1.405       .  A
C1899      C1904   1.452       .  S
C1900      C1901   1.416       .  A
C1900      C1916   1.450       .  S
C1901      C1902   1.422       .  A
C1902      C1905   1.452       .  S
C1903      C1906   1.411       .  A
C1903      C1910   1.412       .  A
C1904      N1921   1.157       .  T
C1905      N1923   1.157       .  T
C1906      C1907   1.406       .  A
C1906      C1911   1.451       .  S
C1907      C1908   1.411       .  A
C1907      C1913   1.451       .  S
C1908      C1909   1.411       .  A
C1909      C1910   1.406       .  A
C1909      C1912   1.451       .  S
C1910      C1914   1.452       .  S
C1911      N1918   1.157       .  T
C1912      N1919   1.157       .  T
C1913      N1917   1.157       .  T
C1914      N1920   1.157       .  T
C1915      N1924   1.157       .  T
C1916      N1922   1.156       .  T
C1925      C1926   1.406       .  A
C1925      C1930   1.409       .  A
C1925      C1943   1.453       .  S
C1926      C1931   1.491       .  S
C1926      C1927   1.407       .  A
C1927      C1928   1.410       .  A
C1927      C1932   1.452       .  S
C1928      C1929   1.422       .  A
C1928      C1944   1.451       .  S
C1929      C1930   1.425       .  A
C1930      C1933   1.452       .  S
C1931      C1934   1.409       .  A
C1931      C1938   1.410       .  A
C1932      N1949   1.157       .  T
C1933      N1951   1.157       .  T
C1934      C1935   1.411       .  A
C1934      C1939   1.451       .  S
C1935      C1936   1.414       .  A
C1935      C1941   1.450       .  S
C1936      C1937   1.413       .  A
C1937      C1938   1.408       .  A
C1937      C1940   1.451       .  S
C1938      C1942   1.452       .  S
C1939      N1946   1.157       .  T
C1940      N1947   1.157       .  T
C1941      N1945   1.157       .  T
C1942      N1948   1.157       .  T
C1943      N1952   1.157       .  T
C1944      N1950   1.157       .  T
C1953      C1954   1.407       .  A
C1953      C1958   1.410       .  A
C1953      C1971   1.452       .  S
C1954      C1959   1.491       .  S
C1954      C1955   1.407       .  A
C1955      C1956   1.409       .  A
C1955      C1960   1.452       .  S
C1956      C1957   1.422       .  A
C1956      C1972   1.452       .  S
C1957      C1958   1.423       .  A
C1958      C1961   1.451       .  S
C1959      C1962   1.411   1_565  A
C1959      C1966   1.411   1_565  A
C1960      N1977   1.157       .  T
C1961      N1979   1.157       .  T
C1962      C1963   1.409       .  A
C1962      C1967   1.450   1_545  S
C1963      C1964   1.412       .  A
C1963      C1969   1.451       .  S
C1964      C1965   1.413       .  A
C1965      C1966   1.407       .  A
C1965      C1968   1.452       .  S
C1966      C1970   1.451   1_545  S
C1967      N1974   1.157       .  T
C1968      N1975   1.157       .  T
C1969      N1973   1.157       .  T
C1970      N1976   1.157       .  T
C1971      N1980   1.157       .  T
C1972      N1978   1.158       .  T
C1981      C1982   1.408       .  A
C1981      C1986   1.407       .  A
C1981      C1999   1.452       .  S
C1982      C1987   1.486       .  S
C1982      C1983   1.406       .  A
C1983      C1984   1.407       .  A
C1983      C1988   1.451       .  S
C1984      C1985   1.419       .  A
C1984      C2000   1.453       .  S
C1985      C1986   1.416       .  A
C1986      C1989   1.450       .  S
C1987      C1990   1.407       .  A
C1987      C1994   1.409       .  A
C1988      N2005   1.157       .  T
C1989      N2007   1.157       .  T
C1990      C1991   1.406       .  A
C1990      C1995   1.451       .  S
C1991      C1992   1.416       .  A
C1991      C1997   1.452       .  S
C1992      C1993   1.416       .  A
C1993      C1994   1.408       .  A
C1993      C1996   1.451       .  S
C1994      C1998   1.452       .  S
C1995      N2002   1.157       .  T
C1996      N2003   1.157       .  T
C1997      N2001   1.157       .  T
C1998      N2004   1.157       .  T
C1999      N2008   1.157       .  T
C2000      N2006   1.157       .  T
C2009      C2010   1.409       .  A
C2009      C2014   1.407       .  A
C2009      C2027   1.451       .  S
C2010      C2015   1.487       .  S
C2010      C2011   1.409       .  A
C2011      C2012   1.407       .  A
C2011      C2016   1.451       .  S
C2012      C2013   1.411       .  A
C2012      C2028   1.450       .  S
C2013      C2014   1.413       .  A
C2014      C2017   1.451       .  S
C2015      C2018   1.407       .  A
C2015      C2022   1.405       .  A
C2016      N2033   1.157       .  T
C2017      N2035   1.157       .  T
C2018      C2019   1.408       .  A
C2018      C2023   1.452       .  S
C2019      C2020   1.421       .  A
C2019      C2025   1.452       .  S
C2020      C2021   1.423       .  A
C2021      C2022   1.407       .  A
C2021      C2024   1.452       .  S
C2022      C2026   1.452       .  S
C2023      N2030   1.157       .  T
C2024      N2031   1.158       .  T
C2025      N2029   1.157       .  T
C2026      N2032   1.157       .  T
C2027      N2036   1.157       .  T
C2028      N2034   1.157       .  T
C2037      C2038   1.405       .  A
C2037      C2042   1.414       .  A
C2037      C2055   1.451       .  S
C2038      C2043   1.493       .  S
C2038      C2039   1.404       .  A
C2039      C2040   1.409       .  A
C2039      C2044   1.453       .  S
C2040      C2041   1.428       .  A
C2040      C2056   1.451       .  S
C2041      C2042   1.427       .  A
C2042      C2045   1.451       .  S
C2043      C2046   1.412       .  A
C2043      C2050   1.411       .  A
C2044      N2061   1.157       .  T
C2045      N2063   1.158       .  T
C2046      C2047   1.405       .  A
C2046      C2051   1.452       .  S
C2047      C2048   1.409       .  A
C2047      C2053   1.451       .  S
C2048      C2049   1.412       .  A
C2049      C2050   1.414       .  A
C2049      C2052   1.450       .  S
C2050      C2054   1.449       .  S
C2051      N2058   1.157       .  T
C2052      N2059   1.157       .  T
C2053      N2057   1.157       .  T
C2054      N2060   1.157       .  T
C2055      N2064   1.157       .  T
C2056      N2062   1.158       .  T
C2065      C2066   1.409       .  A
C2065      C2070   1.411       .  A
C2065      C2083   1.452       .  S
C2066      C2071   1.496       .  S
C2066      C2067   1.408       .  A
C2067      C2068   1.412       .  A
C2067      C2072   1.451       .  S
C2068      C2069   1.422       .  A
C2068      C2084   1.452       .  S
C2069      C2070   1.419       .  A
C2070      C2073   1.450       .  S
C2071      C2074   1.413       .  A
C2071      C2078   1.411       .  A
C2072      N2089   1.157       .  T
C2073      N2091   1.157       .  T
C2074      C2075   1.413       .  A
C2074      C2079   1.449       .  S
C2075      C2076   1.410       .  A
C2075      C2081   1.451       .  S
C2076      C2077   1.411       .  A
C2077      C2078   1.407       .  A
C2077      C2080   1.452       .  S
C2078      C2082   1.451       .  S
C2079      N2086   1.157       .  T
C2080      N2087   1.157       .  T
C2081      N2085   1.158       .  T
C2082      N2088   1.157       .  T
C2083      N2092   1.157       .  T
C2084      N2090   1.158       .  T
C2093      C2094   1.410       .  A
C2093      C2098   1.409       .  A
C2093      C2111   1.450       .  S
C2094      C2099   1.496       .  S
C2094      C2095   1.413       .  A
C2095      C2096   1.413       .  A
C2095      C2100   1.451       .  S
C2096      C2097   1.411       .  A
C2096      C2112   1.450       .  S
C2097      C2098   1.413       .  A
C2098      C2101   1.451       .  S
C2099      C2102   1.413       .  A
C2099      C2106   1.411       .  A
C2100      N2117   1.157       .  T
C2101      N2119   1.157       .  T
C2102      C2103   1.410       .  A
C2102      C2107   1.449       .  S
C2103      C2104   1.407       .  A
C2103      C2109   1.450       .  S
C2104      C2105   1.411       .  A
C2105      C2106   1.410       .  A
C2105      C2108   1.447       .  S
C2106      C2110   1.451       .  S
C2107      N2114   1.157       .  T
C2108      N2115   1.156       .  T
C2109      N2113   1.157       .  T
C2110      N2116   1.157       .  T
C2111      N2120   1.157       .  T
C2112      N2118   1.157       .  T
C2121      C2122   1.410       .  A
C2121      C2126   1.407       .  A
C2121      C2139   1.450       .  S
C2122      C2127   1.489       .  S
C2122      C2123   1.411       .  A
C2123      C2124   1.407       .  A
C2123      C2128   1.450       .  S
C2124      C2125   1.409       .  A
C2124      C2140   1.451       .  S
C2125      C2126   1.410       .  A
C2126      C2129   1.450       .  S
C2127      C2130   1.407       .  A
C2127      C2134   1.404       .  A
C2128      N2145   1.157       .  T
C2129      N2147   1.157       .  T
C2130      C2131   1.412       .  A
C2130      C2135   1.452       .  S
C2131      C2132   1.425       .  A
C2131      C2137   1.452       .  S
C2132      C2133   1.427       .  A
C2133      C2134   1.406       .  A
C2133      C2136   1.452       .  S
C2134      C2138   1.454       .  S
C2135      N2142   1.157       .  T
C2136      N2143   1.158       .  T
C2137      N2141   1.157       .  T
C2138      N2144   1.157       .  T
C2139      N2148   1.157       .  T
C2140      N2146   1.157       .  T
C2149      C2150   1.417       .  A
C2149      C2154   1.417       .  A
C2149      C2167   1.449       .  S
C2150      C2155   1.511       .  S
C2150      C2151   1.416       .  A
C2151      C2152   1.411       .  A
C2151      C2156   1.451       .  S
C2152      C2153   1.412       .  A
C2152      C2168   1.451       .  S
C2153      C2154   1.413       .  A
C2154      C2157   1.451       .  S
C2155      C2158   1.416       .  A
C2155      C2162   1.415       .  A
C2156      N2173   1.157       .  T
C2157      N2175   1.158       .  T
C2158      C2159   1.417       .  A
C2158      C2163   1.450       .  S
C2159      C2160   1.413       .  A
C2159      C2165   1.449       .  S
C2160      C2161   1.413       .  A
C2161      C2162   1.413       .  A
C2161      C2164   1.450       .  S
C2162      C2166   1.451       .  S
C2163      N2170   1.157       .  T
C2164      N2171   1.157       .  T
C2165      N2169   1.157       .  T
C2166      N2172   1.157       .  T
C2167      N2176   1.157       .  T
C2168      N2174   1.157       .  T
C2177      C2178   1.411       .  A
C2177      C2182   1.409       .  A
C2177      C2195   1.450       .  S
C2178      C2183   1.496       .  S
C2178      C2179   1.413       .  A
C2179      C2180   1.412       .  A
C2179      C2184   1.450       .  S
C2180      C2181   1.411       .  A
C2180      C2196   1.452       .  S
C2181      C2182   1.411       .  A
C2182      C2185   1.451       .  S
C2183      C2186   1.410       .  A
C2183      C2190   1.409       .  A
C2184      N2201   1.157       .  T
C2185      N2203   1.157       .  T
C2186      C2187   1.412       .  A
C2186      C2191   1.451       .  S
C2187      C2188   1.418       .  A
C2187      C2193   1.451       .  S
C2188      C2189   1.418       .  A
C2189      C2190   1.411       .  A
C2189      C2192   1.451       .  S
C2190      C2194   1.451       .  S
C2191      N2198   1.157       .  T
C2192      N2199   1.157       .  T
C2193      N2197   1.157       .  T
C2194      N2200   1.157       .  T
C2195      N2204   1.157       .  T
C2196      N2202   1.158       .  T
C2205      C2206   1.412       .  A
C2205      C2210   1.413       .  A
C2205      C2223   1.449       .  S
C2206      C2211   1.500       .  S
C2206      C2207   1.411       .  A
C2207      C2208   1.411       .  A
C2207      C2212   1.451       .  S
C2208      C2209   1.413       .  A
C2208      C2224   1.451       .  S
C2209      C2210   1.411       .  A
C2210      C2213   1.450       .  S
C2211      C2214   1.409       .  A
C2211      C2218   1.406       .  A
C2212      N2229   1.157       .  T
C2213      N2231   1.157       .  T
C2214      C2215   1.414       .  A
C2214      C2219   1.450       .  S
C2215      C2216   1.421       .  A
C2215      C2221   1.451       .  S
C2216      C2217   1.431       .  A
C2217      C2218   1.412       .  A
C2217      C2220   1.453       .  S
C2218      C2222   1.453       .  S
C2219      N2226   1.157       .  T
C2220      N2227   1.158       .  T
C2221      N2225   1.157       .  T
C2222      N2228   1.157       .  T
C2223      N2232   1.157       .  T
C2224      N2230   1.157       .  T
C2233      C2234   1.407   1_655  A
C2233      C2238   1.408       .  A
C2233      C2251   1.450   1_655  S
C2234      C2239   1.489       .  S
C2234      C2235   1.410   1_455  A
C2235      C2236   1.408       .  A
C2235      C2240   1.452   1_655  S
C2236      C2237   1.414       .  A
C2236      C2252   1.451       .  S
C2237      C2238   1.416       .  A
C2238      C2241   1.451       .  S
C2239      C2242   1.408       .  A
C2239      C2246   1.408       .  A
C2240      N2257   1.157       .  T
C2241      N2259   1.157       .  T
C2242      C2243   1.407       .  A
C2242      C2247   1.452       .  S
C2243      C2244   1.416       .  A
C2243      C2249   1.451       .  S
C2244      C2245   1.417       .  A
C2245      C2246   1.410       .  A
C2245      C2248   1.451       .  S
C2246      C2250   1.451       .  S
C2247      N2254   1.157       .  T
C2248      N2255   1.157       .  T
C2249      N2253   1.157       .  T
C2250      N2256   1.157       .  T
C2251      N2260   1.157       .  T
C2252      N2258   1.157       .  T
C2261      C2262   1.409       .  A
C2261      C2266   1.410       .  A
C2261      C2279   1.450       .  S
C2262      C2267   1.497       .  S
C2262      C2263   1.411       .  A
C2263      C2264   1.413       .  A
C2263      C2268   1.451       .  S
C2264      C2265   1.416       .  A
C2264      C2280   1.451       .  S
C2265      C2266   1.416       .  A
C2266      C2269   1.451       .  S
C2267      C2270   1.408       .  A
C2267      C2274   1.407       .  A
C2268      N2285   1.157       .  T
C2269      N2287   1.157       .  T
C2270      C2271   1.413       .  A
C2270      C2275   1.452       .  S
C2271      C2272   1.424       .  A
C2271      C2277   1.451       .  S
C2272      C2273   1.422       .  A
C2273      C2274   1.412       .  A
C2273      C2276   1.451       .  S
C2274      C2278   1.451       .  S
C2275      N2282   1.157       .  T
C2276      N2283   1.157       .  T
C2277      N2281   1.158       .  T
C2278      N2284   1.157       .  T
C2279      N2288   1.157       .  T
C2280      N2286   1.157       .  T
C2289      C2290   1.411       .  A
C2289      C2294   1.408       .  A
C2289      C2307   1.451       .  S
C2290      C2295   1.495       .  S
C2290      C2291   1.410       .  A
C2291      C2292   1.411       .  A
C2291      C2296   1.450       .  S
C2292      C2293   1.416       .  A
C2292      C2308   1.451       .  S
C2293      C2294   1.413       .  A
C2294      C2297   1.451       .  S
C2295      C2298   1.407       .  A
C2295      C2302   1.409       .  A
C2296      N2313   1.157       .  T
C2297      N2315   1.157       .  T
C2298      C2299   1.408       .  A
C2298      C2303   1.454       .  S
C2299      C2300   1.423       .  A
C2299      C2305   1.450       .  S
C2300      C2301   1.421       .  A
C2301      C2302   1.413       .  A
C2301      C2304   1.451       .  S
C2302      C2306   1.450       .  S
C2303      N2310   1.157       .  T
C2304      N2311   1.158       .  T
C2305      N2309   1.157       .  T
C2306      N2312   1.157       .  T
C2307      N2316   1.157       .  T
C2308      N2314   1.157       .  T
C2317      C2318   1.409       .  A
C2317      C2322   1.406       .  A
C2317      C2335   1.453       .  S
C2318      C2323   1.487       .  S
C2318      C2319   1.409       .  A
C2319      C2320   1.406       .  A
C2319      C2324   1.449       .  S
C2320      C2321   1.412       .  A
C2320      C2336   1.451       .  S
C2321      C2322   1.421       .  A
C2322      C2325   1.453       .  S
C2323      C2326   1.410       .  A
C2323      C2330   1.409       .  A
C2324      N2341   1.157       .  T
C2325      N2343   1.158       .  T
C2326      C2327   1.406       .  A
C2326      C2331   1.453       .  S
C2327      C2328   1.417       .  A
C2327      C2333   1.452       .  S
C2328      C2329   1.414       .  A
C2329      C2330   1.408       .  A
C2329      C2332   1.450       .  S
C2330      C2334   1.450       .  S
C2331      N2338   1.157       .  T
C2332      N2339   1.157       .  T
C2333      N2337   1.158       .  T
C2334      N2340   1.157       .  T
C2335      N2344   1.157       .  T
C2336      N2342   1.157       .  T
C2345      C2346   1.407       .  A
C2345      C2350   1.399       .  A
C2345      C2363   1.453       .  S
C2346      C2351   1.472       .  S
C2346      C2347   1.409       .  A
C2347      C2348   1.401       .  A
C2347      C2352   1.453       .  S
C2348      C2349   1.410       .  A
C2348      C2364   1.451       .  S
C2349      C2350   1.413       .  A
C2350      C2353   1.453       .  S
C2351      C2354   1.406       .  A
C2351      C2358   1.405       .  A
C2352      N2369   1.157       .  T
C2353      N2371   1.157       .  T
C2354      C2355   1.400       .  A
C2354      C2359   1.454       .  S
C2355      C2356   1.418       .  A
C2355      C2361   1.452       .  S
C2356      C2357   1.416       .  A
C2357      C2358   1.399       .  A
C2357      C2360   1.451       .  S
C2358      C2362   1.453       .  S
C2359      N2366   1.157       .  T
C2360      N2367   1.156       .  T
C2361      N2365   1.157       .  T
C2362      N2368   1.157       .  T
C2363      N2372   1.157       .  T
C2364      N2370   1.157       .  T
C2373      C2374   1.408       .  A
C2373      C2378   1.402       .  A
C2373      C2391   1.453       .  S
C2374      C2379   1.484       .  S
C2374      C2375   1.407       .  A
C2375      C2376   1.408       .  A
C2375      C2380   1.450       .  S
C2376      C2377   1.415       .  A
C2376      C2392   1.450       .  S
C2377      C2378   1.412       .  A
C2378      C2381   1.447       .  S
C2379      C2382   1.403       .  A
C2379      C2386   1.404       .  A
C2380      N2397   1.157       .  T
C2381      N2399   1.156       .  T
C2382      C2383   1.405       .  A
C2382      C2387   1.455       .  S
C2383      C2384   1.430       .  A
C2383      C2389   1.453       .  S
C2384      C2385   1.425       .  A
C2385      C2386   1.409       .  A
C2385      C2388   1.451       .  S
C2386      C2390   1.452       .  S
C2387      N2394   1.157       .  T
C2388      N2395   1.158       .  T
C2389      N2393   1.158       .  T
C2390      N2396   1.157       .  T
C2391      N2400   1.157       .  T
C2392      N2398   1.157       .  T
C2401      C2402   1.407       .  A
C2401      C2406   1.411       .  A
C2401      C2419   1.451       .  S
C2402      C2407   1.500       .  S
C2402      C2403   1.409       .  A
C2403      C2404   1.414       .  A
C2403      C2408   1.451       .  S
C2404      C2405   1.423       .  A
C2404      C2420   1.451       .  S
C2405      C2406   1.423       .  A
C2406      C2409   1.451       .  S
C2407      C2410   1.410       .  A
C2407      C2414   1.409       .  A
C2408      N2425   1.157       .  T
C2409      N2427   1.157       .  T
C2410      C2411   1.411       .  A
C2410      C2415   1.451       .  S
C2411      C2412   1.415       .  A
C2411      C2417   1.449       .  S
C2412      C2413   1.418       .  A
C2413      C2414   1.414       .  A
C2413      C2416   1.448       .  S
C2414      C2418   1.450       .  S
C2415      N2422   1.157       .  T
C2416      N2423   1.156       .  T
C2417      N2421   1.156       .  T
C2418      N2424   1.157       .  T
C2419      N2428   1.157       .  T
C2420      N2426   1.158       .  T
C2429      C2430   1.411       .  A
C2429      C2434   1.414       .  A
C2429      C2447   1.451       .  S
C2430      C2435   1.501       .  S
C2430      C2431   1.411       .  A
C2431      C2432   1.413       .  A
C2431      C2436   1.451       .  S
C2432      C2433   1.416       .  A
C2432      C2448   1.451       .  S
C2433      C2434   1.416       .  A
C2434      C2437   1.450       .  S
C2435      C2438   1.410       .  A
C2435      C2442   1.407       .  A
C2436      N2453   1.157       .  T
C2437      N2455   1.157       .  T
C2438      C2439   1.414       .  A
C2438      C2443   1.450       .  S
C2439      C2440   1.420       .  A
C2439      C2445   1.451       .  S
C2440      C2441   1.425       .  A
C2441      C2442   1.412       .  A
C2441      C2444   1.451       .  S
C2442      C2446   1.452       .  S
C2443      N2450   1.157       .  T
C2444      N2451   1.157       .  T
C2445      N2449   1.157       .  T
C2446      N2452   1.157       .  T
C2447      N2456   1.157       .  T
C2448      N2454   1.157   1_655  T
C2457      C2458   1.411       .  A
C2457      C2462   1.411       .  A
C2457      C2475   1.450       .  S
C2458      C2463   1.494       .  S
C2458      C2459   1.412       .  A
C2459      C2460   1.407       .  A
C2459      C2464   1.452       .  S
C2460      C2461   1.411       .  A
C2460      C2476   1.451       .  S
C2461      C2462   1.412       .  A
C2462      C2465   1.451       .  S
C2463      C2466   1.408       .  A
C2463      C2470   1.407       .  A
C2464      N2481   1.157       .  T
C2465      N2483   1.157       .  T
C2466      C2467   1.410       .  A
C2466      C2471   1.451       .  S
C2467      C2468   1.421       .  A
C2467      C2473   1.451       .  S
C2468      C2469   1.421       .  A
C2469      C2470   1.409       .  A
C2469      C2472   1.450       .  S
C2470      C2474   1.452       .  S
C2471      N2478   1.157       .  T
C2472      N2479   1.157       .  T
C2473      N2477   1.157       .  T
C2474      N2480   1.157       .  T
C2475      N2484   1.157       .  T
C2476      N2482   1.157       .  T
C2485      C2486   1.408       .  A
C2485      C2490   1.413       .  A
C2485      C2503   1.451       .  S
C2486      C2491   1.499       .  S
C2486      C2487   1.410       .  A
C2487      C2488   1.413       .  A
C2487      C2492   1.452       .  S
C2488      C2489   1.420       .  A
C2488      C2504   1.451       .  S
C2489      C2490   1.422       .  A
C2490      C2493   1.451       .  S
C2491      C2494   1.412       .  A
C2491      C2498   1.413       .  A
C2492      N2509   1.157       .  T
C2493      N2511   1.158       .  T
C2494      C2495   1.410       .  A
C2494      C2499   1.449       .  S
C2495      C2496   1.410       .  A
C2495      C2501   1.451       .  S
C2496      C2497   1.412       .  A
C2497      C2498   1.412       .  A
C2497      C2500   1.451       .  S
C2498      C2502   1.450       .  S
C2499      N2506   1.157       .  T
C2500      N2507   1.157       .  T
C2501      N2505   1.157       .  T
C2502      N2508   1.157       .  T
C2503      N2512   1.157       .  T
C2504      N2510   1.157   1_655  T
C2513      C2514   1.412       .  A
C2513      C2518   1.413       .  A
C2513      C2531   1.451       .  S
C2514      C2519   1.506       .  S
C2514      C2515   1.413       .  A
C2515      C2516   1.415       .  A
C2515      C2520   1.451       .  S
C2516      C2517   1.418       .  A
C2516      C2532   1.451       .  S
C2517      C2518   1.417       .  A
C2518      C2521   1.451       .  S
C2519      C2522   1.410       .  A
C2519      C2526   1.412       .  A
C2520      N2537   1.157       .  T
C2521      N2539   1.157       .  T
C2522      C2523   1.415       .  A
C2522      C2527   1.451       .  S
C2523      C2524   1.420       .  A
C2523      C2529   1.450       .  S
C2524      C2525   1.418       .  A
C2525      C2526   1.415       .  A
C2525      C2528   1.451       .  S
C2526      C2530   1.451       .  S
C2527      N2534   1.157       .  T
C2528      N2535   1.157       .  T
C2529      N2533   1.157       .  T
C2530      N2536   1.157       .  T
C2531      N2540   1.157       .  T
C2532      N2538   1.157   1_655  T
C2541      C2542   1.410       .  A
C2541      C2546   1.413       .  A
C2541      C2559   1.451       .  S
C2542      C2547   1.501       .  S
C2542      C2543   1.409       .  A
C2543      C2544   1.414       .  A
C2543      C2548   1.452       .  S
C2544      C2545   1.425       .  A
C2544      C2560   1.452       .  S
C2545      C2546   1.421       .  A
C2546      C2549   1.451       .  S
C2547      C2550   1.413       .  A
C2547      C2554   1.413       .  A
C2548      N2565   1.157       .  T
C2549      N2567   1.157       .  T
C2550      C2551   1.412       .  A
C2550      C2555   1.450       .  S
C2551      C2552   1.412       .  A
C2551      C2557   1.452       .  S
C2552      C2553   1.411       .  A
C2553      C2554   1.412       .  A
C2553      C2556   1.451       .  S
C2554      C2558   1.450       .  S
C2555      N2562   1.157       .  T
C2556      N2563   1.157       .  T
C2557      N2561   1.158       .  T
C2558      N2564   1.157       .  T
C2559      N2568   1.157       .  T
C2560      N2566   1.158       .  T
C2569      C2570   1.408       .  A
C2569      C2574   1.409       .  A
C2569      C2587   1.453   1_455  S
C2570      C2575   1.491       .  S
C2570      C2571   1.406       .  A
C2571      C2572   1.410       .  A
C2571      C2576   1.450       .  S
C2572      C2573   1.421       .  A
C2572      C2588   1.452       .  S
C2573      C2574   1.420       .  A
C2574      C2577   1.450   1_455  S
C2575      C2578   1.410   1_565  A
C2575      C2582   1.410   1_565  A
C2576      N2593   1.157       .  T
C2577      N2595   1.157       .  T
C2578      C2579   1.406       .  A
C2578      C2583   1.452   1_545  S
C2579      C2580   1.414       .  A
C2579      C2585   1.452       .  S
C2580      C2581   1.411       .  A
C2581      C2582   1.411       .  A
C2581      C2584   1.450       .  S
C2582      C2586   1.449       .  S
C2583      N2590   1.157       .  T
C2584      N2591   1.157       .  T
C2585      N2589   1.157       .  T
C2586      N2592   1.157   1_545  T
C2587      N2596   1.157       .  T
C2588      N2594   1.158       .  T
C2597      C2598   1.411       .  A
C2597      C2602   1.407       .  A
C2597      C2615   1.451       .  S
C2598      C2603   1.489       .  S
C2598      C2599   1.411       .  A
C2599      C2600   1.408       .  A
C2599      C2604   1.451       .  S
C2600      C2601   1.411       .  A
C2600      C2616   1.451       .  S
C2601      C2602   1.411       .  A
C2602      C2605   1.451       .  S
C2603      C2606   1.407       .  A
C2603      C2610   1.409       .  A
C2604      N2621   1.157       .  T
C2605      N2623   1.157       .  T
C2606      C2607   1.405       .  A
C2606      C2611   1.452       .  S
C2607      C2608   1.416       .  A
C2607      C2613   1.448       .  S
C2608      C2609   1.416       .  A
C2609      C2610   1.410       .  A
C2609      C2612   1.450       .  S
C2610      C2614   1.451       .  S
C2611      N2618   1.157       .  T
C2612      N2619   1.157       .  T
C2613      N2617   1.156       .  T
C2614      N2620   1.157       .  T
C2615      N2624   1.157       .  T
C2616      N2622   1.157   1_655  T
C2625      C2626   1.412       .  A
C2625      C2630   1.408       .  A
C2625      C2643   1.451       .  S
C2626      C2631   1.488       .  S
C2626      C2627   1.409       .  A
C2627      C2628   1.408       .  A
C2627      C2632   1.450       .  S
C2628      C2629   1.410       .  A
C2628      C2644   1.450       .  S
C2629      C2630   1.409       .  A
C2630      C2633   1.451       .  S
C2631      C2634   1.405       .  A
C2631      C2638   1.407       .  A
C2632      N2649   1.157       .  T
C2633      N2651   1.157       .  T
C2634      C2635   1.408       .  A
C2634      C2639   1.451       .  S
C2635      C2636   1.422       .  A
C2635      C2641   1.451       .  S
C2636      C2637   1.422       .  A
C2637      C2638   1.408       .  A
C2637      C2640   1.452       .  S
C2638      C2642   1.452       .  S
C2639      N2646   1.157       .  T
C2640      N2647   1.158       .  T
C2641      N2645   1.157       .  T
C2642      N2648   1.157       .  T
C2643      N2652   1.157       .  T
C2644      N2650   1.157       .  T
C2653      C2654   1.410       .  A
C2653      C2658   1.413       .  A
C2653      C2671   1.450   1_455  S
C2654      C2659   1.498       .  S
C2654      C2655   1.410       .  A
C2655      C2656   1.411       .  A
C2655      C2660   1.451       .  S
C2656      C2657   1.415       .  A
C2656      C2672   1.451       .  S
C2657      C2658   1.417       .  A
C2658      C2661   1.451       .  S
C2659      C2662   1.410       .  A
C2659      C2666   1.409       .  A
C2660      N2677   1.157       .  T
C2661      N2679   1.157   1_455  T
C2662      C2663   1.411       .  A
C2662      C2667   1.451   1_455  S
C2663      C2664   1.419       .  A
C2663      C2669   1.452   1_455  S
C2664      C2665   1.418       .  A
C2665      C2666   1.413       .  A
C2665      C2668   1.451       .  S
C2666      C2670   1.450       .  S
C2667      N2674   1.157       .  T
C2668      N2675   1.157       .  T
C2669      N2673   1.158       .  T
C2670      N2676   1.157       .  T
C2671      N2680   1.157       .  T
C2672      N2678   1.157       .  T
C2681      C2682   1.411       .  A
C2681      C2686   1.412       .  A
C2681      C2699   1.451       .  S
C2682      C2687   1.500       .  S
C2682      C2683   1.411       .  A
C2683      C2684   1.412       .  A
C2683      C2688   1.451       .  S
C2684      C2685   1.415       .  A
C2684      C2700   1.450       .  S
C2685      C2686   1.415       .  A
C2686      C2689   1.450       .  S
C2687      C2690   1.410       .  A
C2687      C2694   1.407       .  A
C2688      N2705   1.157       .  T
C2689      N2707   1.157       .  T
C2690      C2691   1.414       .  A
C2690      C2695   1.450       .  S
C2691      C2692   1.420       .  A
C2691      C2697   1.452       .  S
C2692      C2693   1.423       .  A
C2693      C2694   1.410       .  A
C2693      C2696   1.451       .  S
C2694      C2698   1.452       .  S
C2695      N2702   1.157       .  T
C2696      N2703   1.157       .  T
C2697      N2701   1.158       .  T
C2698      N2704   1.157       .  T
C2699      N2708   1.157       .  T
C2700      N2706   1.157       .  T
C2709      C2710   1.411       .  A
C2709      C2714   1.415       .  A
C2709      C2727   1.451       .  S
C2710      C2715   1.505       .  S
C2710      C2711   1.411       .  A
C2711      C2712   1.412       .  A
C2711      C2716   1.452       .  S
C2712      C2713   1.421       .  A
C2712      C2728   1.452       .  S
C2713      C2714   1.420       .  A
C2714      C2717   1.451   1_655  S
C2715      C2718   1.412       .  A
C2715      C2722   1.415       .  A
C2716      N2733   1.157       .  T
C2717      N2735   1.158       .  T
C2718      C2719   1.411       .  A
C2718      C2723   1.450       .  S
C2719      C2720   1.413       .  A
C2719      C2725   1.451       .  S
C2720      C2721   1.412       .  A
C2721      C2722   1.416       .  A
C2721      C2724   1.449       .  S
C2722      C2726   1.450       .  S
C2723      N2730   1.157       .  T
C2724      N2731   1.157       .  T
C2725      N2729   1.157       .  T
C2726      N2732   1.157       .  T
C2727      N2736   1.157       .  T
C2728      N2734   1.158       .  T
C2737      C2738   1.410       .  A
C2737      C2742   1.409       .  A
C2737      C2755   1.451       .  S
C2738      C2743   1.492       .  S
C2738      C2739   1.410       .  A
C2739      C2740   1.409       .  A
C2739      C2744   1.451       .  S
C2740      C2741   1.413       .  A
C2740      C2756   1.452       .  S
C2741      C2742   1.414       .  A
C2742      C2745   1.451       .  S
C2743      C2746   1.409       .  A
C2743      C2750   1.411       .  A
C2744      N2761   1.157       .  T
C2745      N2763   1.157       .  T
C2746      C2747   1.409       .  A
C2746      C2751   1.451       .  S
C2747      C2748   1.413       .  A
C2747      C2753   1.450       .  S
C2748      C2749   1.411       .  A
C2749      C2750   1.410       .  A
C2749      C2752   1.450       .  S
C2750      C2754   1.450       .  S
C2751      N2758   1.157       .  T
C2752      N2759   1.157       .  T
C2753      N2757   1.157       .  T
C2754      N2760   1.157       .  T
C2755      N2764   1.157       .  T
C2756      N2762   1.157       .  T
C2765      C2766   1.408       .  A
C2765      C2770   1.407       .  A
C2765      C2783   1.450       .  S
C2766      C2771   1.484       .  S
C2766      C2767   1.411       .  A
C2767      C2768   1.405       .  A
C2767      C2772   1.452       .  S
C2768      C2769   1.408       .  A
C2768      C2784   1.451       .  S
C2769      C2770   1.412       .  A
C2770      C2773   1.451   1_655  S
C2771      C2774   1.406       .  A
C2771      C2778   1.404       .  A
C2772      N2789   1.157       .  T
C2773      N2791   1.157       .  T
C2774      C2775   1.408       .  A
C2774      C2779   1.452       .  S
C2775      C2776   1.423       .  A
C2775      C2781   1.452       .  S
C2776      C2777   1.424       .  A
C2777      C2778   1.406       .  A
C2777      C2780   1.452       .  S
C2778      C2782   1.452       .  S
C2779      N2786   1.157       .  T
C2780      N2787   1.157       .  T
C2781      N2785   1.157       .  T
C2782      N2788   1.157       .  T
C2783      N2792   1.157       .  T
C2784      N2790   1.157       .  T
C2793      C2794   1.415       .  A
C2793      C2798   1.411       .  A
C2793      C2811   1.451       .  S
C2794      C2799   1.505       .  S
C2794      C2795   1.415       .  A
C2795      C2796   1.413       .  A
C2795      C2800   1.450       .  S
C2796      C2797   1.410       .  A
C2796      C2812   1.450       .  S
C2797      C2798   1.411       .  A
C2798      C2801   1.451       .  S
C2799      C2802   1.412       .  A
C2799      C2806   1.412       .  A
C2800      N2817   1.157       .  T
C2801      N2819   1.157       .  T
C2802      C2803   1.413       .  A
C2802      C2807   1.451   1_455  S
C2803      C2804   1.418       .  A
C2803      C2809   1.451   1_455  S
C2804      C2805   1.421       .  A
C2805      C2806   1.413       .  A
C2805      C2808   1.452       .  S
C2806      C2810   1.452       .  S
C2807      N2814   1.157       .  T
C2808      N2815   1.158       .  T
C2809      N2813   1.157       .  T
C2810      N2816   1.157       .  T
C2811      N2820   1.157       .  T
C2812      N2818   1.157       .  T
C2821      C2822   1.409       .  A
C2821      C2826   1.413       .  A
C2821      C2839   1.452       .  S
C2822      C2827   1.503       .  S
C2822      C2823   1.411       .  A
C2823      C2824   1.416       .  A
C2823      C2828   1.450       .  S
C2824      C2825   1.420       .  A
C2824      C2840   1.450       .  S
C2825      C2826   1.423       .  A
C2826      C2829   1.452       .  S
C2827      C2830   1.412       .  A
C2827      C2834   1.409       .  A
C2828      N2845   1.157       .  T
C2829      N2847   1.158       .  T
C2830      C2831   1.417       .  A
C2830      C2835   1.450       .  S
C2831      C2832   1.416       .  A
C2831      C2837   1.451       .  S
C2832      C2833   1.416       .  A
C2833      C2834   1.411       .  A
C2833      C2836   1.448       .  S
C2834      C2838   1.451       .  S
C2835      N2842   1.157       .  T
C2836      N2843   1.156       .  T
C2837      N2841   1.157       .  T
C2838      N2844   1.157       .  T
C2839      N2848   1.157       .  T
C2840      N2846   1.157       .  T
C2849      C2850   1.409       .  A
C2849      C2854   1.413       .  A
C2849      C2867   1.451       .  S
C2850      C2855   1.502       .  S
C2850      C2851   1.411       .  A
C2851      C2852   1.414       .  A
C2851      C2856   1.451       .  S
C2852      C2853   1.420       .  A
C2852      C2868   1.451   1_655  S
C2853      C2854   1.421       .  A
C2854      C2857   1.451       .  S
C2855      C2858   1.413       .  A
C2855      C2862   1.413       .  A
C2856      N2873   1.157       .  T
C2857      N2875   1.157       .  T
C2858      C2859   1.411       .  A
C2858      C2863   1.451       .  S
C2859      C2860   1.413       .  A
C2859      C2865   1.450       .  S
C2860      C2861   1.412       .  A
C2861      C2862   1.414       .  A
C2861      C2864   1.449       .  S
C2862      C2866   1.450       .  S
C2863      N2870   1.157       .  T
C2864      N2871   1.157       .  T
C2865      N2869   1.157       .  T
C2866      N2872   1.157       .  T
C2867      N2876   1.157       .  T
C2868      N2874   1.157       .  T
C2877      C2878   1.411       .  A
C2877      C2882   1.404   1_565  A
C2877      C2895   1.452       .  S
C2878      C2883   1.484       .  S
C2878      C2879   1.408       .  A
C2879      C2880   1.407   1_565  A
C2879      C2884   1.450       .  S
C2880      C2881   1.413       .  A
C2880      C2896   1.451       .  S
C2881      C2882   1.412       .  A
C2882      C2885   1.452       .  S
C2883      C2886   1.408       .  A
C2883      C2890   1.408       .  A
C2884      N2901   1.157   1_455  T
C2885      N2903   1.157       .  T
C2886      C2887   1.408       .  A
C2886      C2891   1.450       .  S
C2887      C2888   1.413       .  A
C2887      C2893   1.450       .  S
C2888      C2889   1.417       .  A
C2889      C2890   1.404       .  A
C2889      C2892   1.453   1_455  S
C2890      C2894   1.453   1_455  S
C2891      N2898   1.157       .  T
C2892      N2899   1.158       .  T
C2893      N2897   1.157       .  T
C2894      N2900   1.157       .  T
C2895      N2904   1.157       .  T
C2896      N2902   1.157   1_455  T
C2905      C2906   1.409       .  A
C2905      C2910   1.408       .  A
C2905      C2923   1.452       .  S
C2906      C2911   1.489       .  S
C2906      C2907   1.408       .  A
C2907      C2908   1.407       .  A
C2907      C2912   1.452       .  S
C2908      C2909   1.417       .  A
C2908      C2924   1.452       .  S
C2909      C2910   1.416       .  A
C2910      C2913   1.451       .  S
C2911      C2914   1.406       .  A
C2911      C2918   1.405       .  A
C2912      N2929   1.157       .  T
C2913      N2931   1.157       .  T
C2914      C2915   1.410       .  A
C2914      C2919   1.452       .  S
C2915      C2916   1.425       .  A
C2915      C2921   1.452       .  S
C2916      C2917   1.426       .  A
C2917      C2918   1.407       .  A
C2917      C2920   1.452       .  S
C2918      C2922   1.453       .  S
C2919      N2926   1.157       .  T
C2920      N2927   1.157       .  T
C2921      N2925   1.158       .  T
C2922      N2928   1.157       .  T
C2923      N2932   1.157       .  T
C2924      N2930   1.157       .  T
C2933      C2934   1.412       .  A
C2933      C2938   1.406       .  A
C2933      C2951   1.451       .  S
C2934      C2939   1.488       .  S
C2934      C2935   1.410       .  A
C2935      C2936   1.408       .  A
C2935      C2940   1.450       .  S
C2936      C2937   1.412       .  A
C2936      C2952   1.452       .  S
C2937      C2938   1.408       .  A
C2938      C2941   1.451       .  S
C2939      C2942   1.406       .  A
C2939      C2946   1.408       .  A
C2940      N2957   1.157       .  T
C2941      N2959   1.157       .  T
C2942      C2943   1.408       .  A
C2942      C2947   1.452       .  S
C2943      C2944   1.419       .  A
C2943      C2949   1.450       .  S
C2944      C2945   1.418       .  A
C2945      C2946   1.410       .  A
C2945      C2948   1.451       .  S
C2946      C2950   1.451       .  S
C2947      N2954   1.157       .  T
C2948      N2955   1.157       .  T
C2949      N2953   1.157       .  T
C2950      N2956   1.157       .  T
C2951      N2960   1.157       .  T
C2952      N2958   1.157       .  T
C2961      C2962   1.414       .  A
C2961      C2966   1.412       .  A
C2961      C2979   1.451       .  S
C2962      C2967   1.502       .  S
C2962      C2963   1.413       .  A
C2963      C2964   1.414       .  A
C2963      C2968   1.450       .  S
C2964      C2965   1.413       .  A
C2964      C2980   1.450       .  S
C2965      C2966   1.410       .  A
C2966      C2969   1.450       .  S
C2967      C2970   1.410       .  A
C2967      C2974   1.409       .  A
C2968      N2985   1.157       .  T
C2969      N2987   1.157       .  T
C2970      C2971   1.414       .  A
C2970      C2975   1.450       .  S
C2971      C2972   1.421       .  A
C2971      C2977   1.452       .  S
C2972      C2973   1.427       .  A
C2973      C2974   1.413       .  A
C2973      C2976   1.451       .  S
C2974      C2978   1.453       .  S
C2975      N2982   1.157       .  T
C2976      N2983   1.157       .  T
C2977      N2981   1.158       .  T
C2978      N2984   1.157       .  T
C2979      N2988   1.157       .  T
C2980      N2986   1.157       .  T
C2989      C2990   1.408       .  A
C2989      C2994   1.408       .  A
C2989      C3007   1.452       .  S
C2990      C2995   1.497       .  S
C2990      C2991   1.410       .  A
C2991      C2992   1.414       .  A
C2991      C2996   1.450       .  S
C2992      C2993   1.419       .  A
C2992      C3008   1.451       .  S
C2993      C2994   1.417       .  A
C2994      C2997   1.449       .  S
C2995      C2998   1.410       .  A
C2995      C3002   1.408       .  A
C2996      N3013   1.157       .  T
C2997      N3015   1.156       .  T
C2998      C2999   1.413       .  A
C2998      C3003   1.451       .  S
C2999      C3000   1.418       .  A
C2999      C3005   1.450       .  S
C3000      C3001   1.420       .  A
C3001      C3002   1.412       .  A
C3001      C3004   1.451       .  S
C3002      C3006   1.451       .  S
C3003      N3010   1.157       .  T
C3004      N3011   1.157       .  T
C3005      N3009   1.157       .  T
C3006      N3012   1.157       .  T
C3007      N3016   1.157       .  T
C3008      N3014   1.157       .  T
C3017      C3018   1.408       .  A
C3017      C3022   1.412       .  A
C3017      C3035   1.451       .  S
C3018      C3023   1.496       .  S
C3018      C3019   1.408       .  A
C3019      C3020   1.411       .  A
C3019      C3024   1.452       .  S
C3020      C3021   1.422       .  A
C3020      C3036   1.450       .  S
C3021      C3022   1.422       .  A
C3022      C3025   1.451       .  S
C3023      C3026   1.412       .  A
C3023      C3030   1.411       .  A
C3024      N3041   1.157       .  T
C3025      N3043   1.157       .  T
C3026      C3027   1.411       .  A
C3026      C3031   1.451       .  S
C3027      C3028   1.410       .  A
C3027      C3033   1.450       .  S
C3028      C3029   1.412       .  A
C3029      C3030   1.410       .  A
C3029      C3032   1.451       .  S
C3030      C3034   1.450       .  S
C3031      N3038   1.157       .  T
C3032      N3039   1.157       .  T
C3033      N3037   1.157       .  T
C3034      N3040   1.157       .  T
C3035      N3044   1.157       .  T
C3036      N3042   1.157       .  T
C3045      C3046   1.410       .  A
C3045      C3050   1.408       .  A
C3045      C3063   1.451       .  S
C3046      C3051   1.489       .  S
C3046      C3047   1.410       .  A
C3047      C3048   1.408       .  A
C3047      C3052   1.450       .  S
C3048      C3049   1.409       .  A
C3048      C3064   1.451       .  S
C3049      C3050   1.410       .  A
C3050      C3053   1.450       .  S
C3051      C3054   1.407       .  A
C3051      C3058   1.407       .  A
C3052      N3069   1.157       .  T
C3053      N3071   1.157       .  T
C3054      C3055   1.408       .  A
C3054      C3059   1.451       .  S
C3055      C3056   1.418       .  A
C3055      C3061   1.451       .  S
C3056      C3057   1.421       .  A
C3057      C3058   1.409       .  A
C3057      C3060   1.451       .  S
C3058      C3062   1.452       .  S
C3059      N3066   1.157       .  T
C3060      N3067   1.157       .  T
C3061      N3065   1.157       .  T
C3062      N3068   1.157       .  T
C3063      N3072   1.157       .  T
C3064      N3070   1.157       .  T
C3073      C3074   1.408       .  A
C3073      C3078   1.411       .  A
C3073      C3091   1.452       .  S
C3074      C3079   1.494       .  S
C3074      C3075   1.406       .  A
C3075      C3076   1.410       .  A
C3075      C3080   1.452       .  S
C3076      C3077   1.425       .  A
C3076      C3092   1.451       .  S
C3077      C3078   1.422       .  A
C3078      C3081   1.451       .  S
C3079      C3082   1.410       .  A
C3079      C3086   1.411       .  A
C3080      N3097   1.157       .  T
C3081      N3099   1.157       .  T
C3082      C3083   1.410       .  A
C3082      C3087   1.450       .  S
C3083      C3084   1.414       .  A
C3083      C3089   1.451       .  S
C3084      C3085   1.412       .  A
C3085      C3086   1.408       .  A
C3085      C3088   1.452       .  S
C3086      C3090   1.451       .  S
C3087      N3094   1.157       .  T
C3088      N3095   1.157   1_545  T
C3089      N3093   1.157       .  T
C3090      N3096   1.157       .  T
C3091      N3100   1.157       .  T
C3092      N3098   1.157       .  T
C3101      C3102   1.410       .  A
C3101      C3106   1.409       .  A
C3101      C3119   1.450       .  S
C3102      C3107   1.494       .  S
C3102      C3103   1.411       .  A
C3103      C3104   1.411       .  A
C3103      C3108   1.451       .  S
C3104      C3105   1.413       .  A
C3104      C3120   1.451       .  S
C3105      C3106   1.412       .  A
C3106      C3109   1.451       .  S
C3107      C3110   1.407       .  A
C3107      C3114   1.408       .  A
C3108      N3125   1.157       .  T
C3109      N3127   1.157       .  T
C3110      C3111   1.410       .  A
C3110      C3115   1.453       .  S
C3111      C3112   1.424       .  A
C3111      C3117   1.451       .  S
C3112      C3113   1.419       .  A
C3113      C3114   1.411       .  A
C3113      C3116   1.452       .  S
C3114      C3118   1.450       .  S
C3115      N3122   1.157       .  T
C3116      N3123   1.157       .  T
C3117      N3121   1.157       .  T
C3118      N3124   1.157       .  T
C3119      N3128   1.157       .  T
C3120      N3126   1.157       .  T
C3129      C3130   1.410       .  A
C3129      C3134   1.404       .  A
C3129      C3147   1.452       .  S
C3130      C3135   1.485       .  S
C3130      C3131   1.410       .  A
C3131      C3132   1.408       .  A
C3131      C3136   1.450       .  S
C3132      C3133   1.410       .  A
C3132      C3148   1.451       .  S
C3133      C3134   1.409       .  A
C3134      C3137   1.451       .  S
C3135      C3138   1.407       .  A
C3135      C3142   1.407       .  A
C3136      N3153   1.157       .  T
C3137      N3155   1.157   1_545  T
C3138      C3139   1.409       .  A
C3138      C3143   1.452       .  S
C3139      C3140   1.419       .  A
C3139      C3145   1.450       .  S
C3140      C3141   1.418       .  A
C3141      C3142   1.405       .  A
C3141      C3144   1.452       .  S
C3142      C3146   1.452       .  S
C3143      N3150   1.157       .  T
C3144      N3151   1.157       .  T
C3145      N3149   1.157       .  T
C3146      N3152   1.157       .  T
C3147      N3156   1.157       .  T
C3148      N3154   1.157   1_545  T
C3157      C3158   1.411       .  A
C3157      C3162   1.406       .  A
C3157      C3175   1.450       .  S
C3158      C3163   1.486       .  S
C3158      C3159   1.410       .  A
C3159      C3160   1.406       .  A
C3159      C3164   1.451       .  S
C3160      C3161   1.410       .  A
C3160      C3176   1.452       .  S
C3161      C3162   1.409       .  A
C3162      C3165   1.452       .  S
C3163      C3166   1.406       .  A
C3163      C3170   1.405       .  A
C3164      N3181   1.157       .  T
C3165      N3183   1.157       .  T
C3166      C3167   1.408       .  A
C3166      C3171   1.452       .  S
C3167      C3168   1.421       .  A
C3167      C3173   1.450       .  S
C3168      C3169   1.424       .  A
C3169      C3170   1.408       .  A
C3169      C3172   1.452       .  S
C3170      C3174   1.452       .  S
C3171      N3178   1.157       .  T
C3172      N3179   1.157       .  T
C3173      N3177   1.157       .  T
C3174      N3180   1.157       .  T
C3175      N3184   1.157       .  T
C3176      N3182   1.157       .  T
C3185      C3186   1.409       .  A
C3185      C3190   1.403       .  A
C3185      C3203   1.451       .  S
C3186      C3191   1.483       .  S
C3186      C3187   1.409       .  A
C3187      C3188   1.407       .  A
C3187      C3192   1.450       .  S
C3188      C3189   1.410       .  A
C3188      C3204   1.450       .  S
C3189      C3190   1.410       .  A
C3190      C3193   1.452       .  S
C3191      C3194   1.404       .  A
C3191      C3198   1.406       .  A
C3192      N3209   1.157       .  T
C3193      N3211   1.157       .  T
C3194      C3195   1.407       .  A
C3194      C3199   1.452       .  S
C3195      C3196   1.422       .  A
C3195      C3201   1.451       .  S
C3196      C3197   1.421       .  A
C3197      C3198   1.406       .  A
C3197      C3200   1.452       .  S
C3198      C3202   1.453       .  S
C3199      N3206   1.157       .  T
C3200      N3207   1.157       .  T
C3201      N3205   1.157       .  T
C3202      N3208   1.157       .  T
C3203      N3212   1.157       .  T
C3204      N3210   1.157       .  T
C3213      C3214   1.409       .  A
C3213      C3218   1.405       .  A
C3213      C3231   1.452       .  S
C3214      C3219   1.488       .  S
C3214      C3215   1.411       .  A
C3215      C3216   1.410       .  A
C3215      C3220   1.450       .  S
C3216      C3217   1.411       .  A
C3216      C3232   1.450       .  S
C3217      C3218   1.412       .  A
C3218      C3221   1.450       .  S
C3219      C3222   1.406       .  A
C3219      C3226   1.407       .  A
C3220      N3237   1.157       .  T
C3221      N3239   1.156       .  T
C3222      C3223   1.407       .  A
C3222      C3227   1.453       .  S
C3223      C3224   1.424       .  A
C3223      C3229   1.451       .  S
C3224      C3225   1.419       .  A
C3225      C3226   1.409       .  A
C3225      C3228   1.452       .  S
C3226      C3230   1.451       .  S
C3227      N3234   1.157       .  T
C3228      N3235   1.158       .  T
C3229      N3233   1.157       .  T
C3230      N3236   1.157       .  T
C3231      N3240   1.157       .  T
C3232      N3238   1.157       .  T
C3241      C3242   1.411       .  A
C3241      C3246   1.408       .  A
C3241      C3259   1.451       .  S
C3242      C3247   1.489       .  S
C3242      C3243   1.409       .  A
C3243      C3244   1.406       .  A
C3243      C3248   1.450       .  S
C3244      C3245   1.410       .  A
C3244      C3260   1.452       .  S
C3245      C3246   1.411       .  A
C3246      C3249   1.451       .  S
C3247      C3250   1.410       .  A
C3247      C3254   1.408       .  A
C3248      N3265   1.157       .  T
C3249      N3267   1.157       .  T
C3250      C3251   1.409       .  A
C3250      C3255   1.451       .  S
C3251      C3252   1.412       .  A
C3251      C3257   1.451       .  S
C3252      C3253   1.416       .  A
C3253      C3254   1.408       .  A
C3253      C3256   1.451       .  S
C3254      C3258   1.451       .  S
C3255      N3262   1.157       .  T
C3256      N3263   1.157       .  T
C3257      N3261   1.157       .  T
C3258      N3264   1.157       .  T
C3259      N3268   1.157       .  T
C3260      N3266   1.157       .  T
C3269      C3270   1.406       .  A
C3269      C3274   1.410       .  A
C3269      C3287   1.452       .  S
C3270      C3275   1.489       .  S
C3270      C3271   1.406       .  A
C3271      C3272   1.408       .  A
C3271      C3276   1.453       .  S
C3272      C3273   1.425       .  A
C3272      C3288   1.452       .  S
C3273      C3274   1.424       .  A
C3274      C3277   1.451       .  S
C3275      C3278   1.406       .  A
C3275      C3282   1.407       .  A
C3276      N3293   1.157       .  T
C3277      N3295   1.158   1_556  T
C3278      C3279   1.407       .  A
C3278      C3283   1.453       .  S
C3279      C3280   1.422       .  A
C3279      C3285   1.452       .  S
C3280      C3281   1.421       .  A
C3281      C3282   1.410       .  A
C3281      C3284   1.452       .  S
C3282      C3286   1.451       .  S
C3283      N3290   1.157       .  T
C3284      N3291   1.158       .  T
C3285      N3289   1.157       .  T
C3286      N3292   1.157       .  T
C3287      N3296   1.157       .  T
C3288      N3294   1.158       .  T
C3297      C3298   1.408       .  A
C3297      C3302   1.412       .  A
C3297      C3315   1.452       .  S
C3298      C3303   1.499       .  S
C3298      C3299   1.409       .  A
C3299      C3300   1.413       .  A
C3299      C3304   1.451       .  S
C3300      C3301   1.421       .  A
C3300      C3316   1.451       .  S
C3301      C3302   1.423       .  A
C3302      C3305   1.451       .  S
C3303      C3306   1.411       .  A
C3303      C3310   1.412       .  A
C3304      N3321   1.157       .  T
C3305      N3323   1.157       .  T
C3306      C3307   1.412       .  A
C3306      C3311   1.450       .  S
C3307      C3308   1.414       .  A
C3307      C3313   1.451       .  S
C3308      C3309   1.414       .  A
C3309      C3310   1.412       .  A
C3309      C3312   1.451       .  S
C3310      C3314   1.451       .  S
C3311      N3318   1.157       .  T
C3312      N3319   1.157       .  T
C3313      N3317   1.157       .  T
C3314      N3320   1.157       .  T
C3315      N3324   1.157       .  T
C3316      N3322   1.157       .  T
C3325      C3326   1.411       .  A
C3325      C3330   1.412       .  A
C3325      C3343   1.451       .  S
C3326      C3331   1.504       .  S
C3326      C3327   1.412       .  A
C3327      C3328   1.415       .  A
C3327      C3332   1.451       .  S
C3328      C3329   1.421       .  A
C3328      C3344   1.451       .  S
C3329      C3330   1.420       .  A
C3330      C3333   1.452       .  S
C3331      C3334   1.414       .  A
C3331      C3338   1.413       .  A
C3332      N3349   1.157       .  T
C3333      N3351   1.157       .  T
C3334      C3335   1.415       .  A
C3334      C3339   1.450       .  S
C3335      C3336   1.412       .  A
C3335      C3341   1.450       .  S
C3336      C3337   1.412       .  A
C3337      C3338   1.411       .  A
C3337      C3340   1.451       .  S
C3338      C3342   1.451       .  S
C3339      N3346   1.157       .  T
C3340      N3347   1.157       .  T
C3341      N3345   1.157       .  T
C3342      N3348   1.157       .  T
C3343      N3352   1.157       .  T
C3344      N3350   1.158       .  T
C3353      C3354   1.412       .  A
C3353      C3358   1.409       .  A
C3353      C3371   1.448       .  S
C3354      C3359   1.494       .  S
C3354      C3355   1.411       .  A
C3355      C3356   1.409       .  A
C3355      C3360   1.450       .  S
C3356      C3357   1.412       .  A
C3356      C3372   1.451       .  S
C3357      C3358   1.407       .  A
C3358      C3361   1.451       .  S
C3359      C3362   1.408       .  A
C3359      C3366   1.409       .  A
C3360      N3377   1.157       .  T
C3361      N3379   1.157       .  T
C3362      C3363   1.410       .  A
C3362      C3367   1.452       .  S
C3363      C3364   1.418       .  A
C3363      C3369   1.450       .  S
C3364      C3365   1.420       .  A
C3365      C3366   1.412       .  A
C3365      C3368   1.450       .  S
C3366      C3370   1.452       .  S
C3367      N3374   1.157       .  T
C3368      N3375   1.157       .  T
C3369      N3373   1.157       .  T
C3370      N3376   1.157       .  T
C3371      N3380   1.156       .  T
C3372      N3378   1.157       .  T
C3381      C3382   1.409       .  A
C3381      C3386   1.415       .  A
C3381      C3399   1.451       .  S
C3382      C3387   1.499       .  S
C3382      C3383   1.408       .  A
C3383      C3384   1.409       .  A
C3383      C3388   1.453       .  S
C3384      C3385   1.426       .  A
C3384      C3400   1.453       .  S
C3385      C3386   1.423       .  A
C3386      C3389   1.450       .  S
C3387      C3390   1.415       .  A
C3387      C3394   1.412       .  A
C3388      N3405   1.157       .  T
C3389      N3407   1.157       .  T
C3390      C3391   1.411       .  A
C3390      C3395   1.452       .  S
C3391      C3392   1.410       .  A
C3391      C3397   1.450       .  S
C3392      C3393   1.412       .  A
C3393      C3394   1.410       .  A
C3393      C3396   1.451       .  S
C3394      C3398   1.450       .  S
C3395      N3402   1.157       .  T
C3396      N3403   1.157       .  T
C3397      N3401   1.157       .  T
C3398      N3404   1.157       .  T
C3399      N3408   1.157       .  T
C3400      N3406   1.158       .  T
C3409      C3410   1.409       .  A
C3409      C3414   1.408       .  A
C3409      C3427   1.451       .  S
C3410      C3415   1.494       .  S
C3410      C3411   1.409       .  A
C3411      C3412   1.413       .  A
C3411      C3416   1.451   1_565  S
C3412      C3413   1.418       .  A
C3412      C3428   1.450   1_565  S
C3413      C3414   1.418       .  A
C3414      C3417   1.452       .  S
C3415      C3418   1.411       .  A
C3415      C3422   1.411       .  A
C3416      N3433   1.157       .  T
C3417      N3435   1.157       .  T
C3418      C3419   1.411       .  A
C3418      C3423   1.450       .  S
C3419      C3420   1.411       .  A
C3419      C3425   1.451       .  S
C3420      C3421   1.412       .  A
C3421      C3422   1.407       .  A
C3421      C3424   1.452       .  S
C3422      C3426   1.451       .  S
C3423      N3430   1.157       .  T
C3424      N3431   1.157   1_565  T
C3425      N3429   1.157       .  T
C3426      N3432   1.157   1_565  T
C3427      N3436   1.157       .  T
C3428      N3434   1.157       .  T
C3437      C3438   1.412       .  A
C3437      C3442   1.413       .  A
C3437      C3455   1.450       .  S
C3438      C3443   1.498       .  S
C3438      C3439   1.410       .  A
C3439      C3440   1.410       .  A
C3439      C3444   1.451       .  S
C3440      C3441   1.414       .  A
C3440      C3456   1.451       .  S
C3441      C3442   1.413       .  A
C3442      C3445   1.450       .  S
C3443      C3446   1.406       .  A
C3443      C3450   1.408       .  A
C3444      N3461   1.157       .  T
C3445      N3463   1.157       .  T
C3446      C3447   1.412       .  A
C3446      C3451   1.453       .  S
C3447      C3448   1.428       .  A
C3447      C3453   1.451       .  S
C3448      C3449   1.422       .  A
C3449      C3450   1.413       .  A
C3449      C3452   1.451       .  S
C3450      C3454   1.451       .  S
C3451      N3458   1.157       .  T
C3452      N3459   1.157       .  T
C3453      N3457   1.157       .  T
C3454      N3460   1.157       .  T
C3455      N3464   1.157       .  T
C3456      N3462   1.157       .  T
C3465      C3466   1.407       .  A
C3465      C3470   1.412       .  A
C3465      C3483   1.451       .  S
C3466      C3471   1.495       .  S
C3466      C3467   1.408       .  A
C3467      C3468   1.410       .  A
C3467      C3472   1.452       .  S
C3468      C3469   1.422       .  A
C3468      C3484   1.452       .  S
C3469      C3470   1.423       .  A
C3470      C3473   1.451       .  S
C3471      C3474   1.410       .  A
C3471      C3478   1.410       .  A
C3472      N3489   1.157       .  T
C3473      N3491   1.158       .  T
C3474      C3475   1.408       .  A
C3474      C3479   1.451       .  S
C3475      C3476   1.413       .  A
C3475      C3481   1.451       .  S
C3476      C3477   1.414       .  A
C3477      C3478   1.412       .  A
C3477      C3480   1.449       .  S
C3478      C3482   1.450       .  S
C3479      N3486   1.157       .  T
C3480      N3487   1.157       .  T
C3481      N3485   1.157       .  T
C3482      N3488   1.157       .  T
C3483      N3492   1.157       .  T
C3484      N3490   1.158       .  T
C3493      C3494   1.408       .  A
C3493      C3498   1.411       .  A
C3493      C3511   1.449   1_565  S
C3494      C3499   1.493   1_556  S
C3494      C3495   1.411       .  A
C3495      C3496   1.408       .  A
C3495      C3500   1.452       .  S
C3496      C3497   1.416       .  A
C3496      C3512   1.452       .  S
C3497      C3498   1.415       .  A
C3498      C3501   1.450   1_565  S
C3499      C3502   1.407       .  A
C3499      C3506   1.409   1_565  A
C3500      N3517   1.157   1_556  T
C3501      N3519   1.157       .  T
C3502      C3503   1.411       .  A
C3502      C3507   1.451       .  S
C3503      C3504   1.420       .  A
C3503      C3509   1.451       .  S
C3504      C3505   1.420   1_565  A
C3505      C3506   1.409       .  A
C3505      C3508   1.451       .  S
C3506      C3510   1.452       .  S
C3507      N3514   1.157       .  T
C3508      N3515   1.158       .  T
C3509      N3513   1.157       .  T
C3510      N3516   1.157   1_554  T
C3511      N3520   1.157       .  T
C3512      N3518   1.158       .  T
C3521      C3522   1.405       .  A
C3521      C3526   1.408       .  A
C3521      C3539   1.452       .  S
C3522      C3527   1.487       .  S
C3522      C3523   1.408       .  A
C3523      C3524   1.410       .  A
C3523      C3528   1.452       .  S
C3524      C3525   1.420       .  A
C3524      C3540   1.451       .  S
C3525      C3526   1.422       .  A
C3526      C3529   1.452       .  S
C3527      C3530   1.411       .  A
C3527      C3534   1.410       .  A
C3528      N3545   1.157       .  T
C3529      N3547   1.157       .  T
C3530      C3531   1.408       .  A
C3530      C3535   1.450       .  S
C3531      C3532   1.410       .  A
C3531      C3537   1.451       .  S
C3532      C3533   1.410       .  A
C3533      C3534   1.404       .  A
C3533      C3536   1.452       .  S
C3534      C3538   1.451       .  S
C3535      N3542   1.157       .  T
C3536      N3543   1.157       .  T
C3537      N3541   1.158       .  T
C3538      N3544   1.157       .  T
C3539      N3548   1.157       .  T
C3540      N3546   1.157   1_545  T
C3549      C3550   1.410       .  A
C3549      C3554   1.409       .  A
C3549      C3567   1.450       .  S
C3550      C3555   1.490       .  S
C3550      C3551   1.411       .  A
C3551      C3552   1.407       .  A
C3551      C3556   1.451       .  S
C3552      C3553   1.410       .  A
C3552      C3568   1.451       .  S
C3553      C3554   1.411       .  A
C3554      C3557   1.451       .  S
C3555      C3558   1.408       .  A
C3555      C3562   1.407       .  A
C3556      N3573   1.157       .  T
C3557      N3575   1.157       .  T
C3558      C3559   1.410       .  A
C3558      C3563   1.451       .  S
C3559      C3560   1.420       .  A
C3559      C3565   1.452       .  S
C3560      C3561   1.419       .  A
C3561      C3562   1.407       .  A
C3561      C3564   1.451       .  S
C3562      C3566   1.452       .  S
C3563      N3570   1.157       .  T
C3564      N3571   1.157       .  T
C3565      N3569   1.157       .  T
C3566      N3572   1.157       .  T
C3567      N3576   1.157       .  T
C3568      N3574   1.157       .  T
C3577      C3578   1.409       .  A
C3577      C3582   1.413       .  A
C3577      C3595   1.451       .  S
C3578      C3583   1.498       .  S
C3578      C3579   1.408       .  A
C3579      C3580   1.412       .  A
C3579      C3584   1.451   1_565  S
C3580      C3581   1.421       .  A
C3580      C3596   1.451   1_565  S
C3581      C3582   1.422       .  A
C3582      C3585   1.451       .  S
C3583      C3586   1.411       .  A
C3583      C3590   1.410       .  A
C3584      N3601   1.157       .  T
C3585      N3603   1.158       .  T
C3586      C3587   1.413       .  A
C3586      C3591   1.451   1_565  S
C3587      C3588   1.414       .  A
C3587      C3593   1.451   1_565  S
C3588      C3589   1.414       .  A
C3589      C3590   1.410       .  A
C3589      C3592   1.451       .  S
C3590      C3594   1.450       .  S
C3591      N3598   1.157       .  T
C3592      N3599   1.157       .  T
C3593      N3597   1.157       .  T
C3594      N3600   1.157       .  T
C3595      N3604   1.157       .  T
C3596      N3602   1.157       .  T
C3605      C3606   1.414       .  A
C3605      C3610   1.408       .  A
C3605      C3623   1.452       .  S
C3606      C3611   1.501       .  S
C3606      C3607   1.414       .  A
C3607      C3608   1.414       .  A
C3607      C3612   1.449       .  S
C3608      C3609   1.411       .  A
C3608      C3624   1.450       .  S
C3609      C3610   1.410       .  A
C3610      C3613   1.451       .  S
C3611      C3614   1.412       .  A
C3611      C3618   1.411       .  A
C3612      N3629   1.157       .  T
C3613      N3631   1.157       .  T
C3614      C3615   1.410       .  A
C3614      C3619   1.452       .  S
C3615      C3616   1.418       .  A
C3615      C3621   1.451       .  S
C3616      C3617   1.419       .  A
C3617      C3618   1.414       .  A
C3617      C3620   1.452       .  S
C3618      C3622   1.451       .  S
C3619      N3626   1.157       .  T
C3620      N3627   1.158       .  T
C3621      N3625   1.157   1_545  T
C3622      N3628   1.157       .  T
C3623      N3632   1.157       .  T
C3624      N3630   1.158       .  T
C3633      C3634   1.413       .  A
C3633      C3638   1.414       .  A
C3633      C3651   1.449       .  S
C3634      C3639   1.502       .  S
C3634      C3635   1.414       .  A
C3635      C3636   1.410       .  A
C3635      C3640   1.451       .  S
C3636      C3637   1.410       .  A
C3636      C3652   1.451       .  S
C3637      C3638   1.411       .  A
C3638      C3641   1.450       .  S
C3639      C3642   1.408       .  A
C3639      C3646   1.410       .  A
C3640      N3657   1.157       .  T
C3641      N3659   1.157       .  T
C3642      C3643   1.411       .  A
C3642      C3647   1.452       .  S
C3643      C3644   1.424       .  A
C3643      C3649   1.451       .  S
C3644      C3645   1.424       .  A
C3645      C3646   1.416       .  A
C3645      C3648   1.451       .  S
C3646      C3650   1.451       .  S
C3647      N3654   1.157       .  T
C3648      N3655   1.157       .  T
C3649      N3653   1.157       .  T
C3650      N3656   1.157       .  T
C3651      N3660   1.157       .  T
C3652      N3658   1.157       .  T
C3661      C3662   1.409       .  A
C3661      C3666   1.408       .  A
C3661      C3679   1.451       .  S
C3662      C3667   1.487   1_556  S
C3662      C3663   1.411       .  A
C3663      C3664   1.406       .  A
C3663      C3668   1.451       .  S
C3664      C3665   1.410       .  A
C3664      C3680   1.451       .  S
C3665      C3666   1.411       .  A
C3666      C3669   1.450       .  S
C3667      C3670   1.408       .  A
C3667      C3674   1.407       .  A
C3668      N3685   1.157   1_556  T
C3669      N3687   1.157       .  T
C3670      C3671   1.406       .  A
C3670      C3675   1.452   1_565  S
C3671      C3672   1.419       .  A
C3671      C3677   1.452   1_565  S
C3672      C3673   1.418       .  A
C3673      C3674   1.408       .  A
C3673      C3676   1.452       .  S
C3674      C3678   1.451       .  S
C3675      N3682   1.157       .  T
C3676      N3683   1.157       .  T
C3677      N3681   1.157       .  T
C3678      N3684   1.157       .  T
C3679      N3688   1.157   1_565  T
C3680      N3686   1.157       .  T
C3689      C3690   1.407       .  A
C3689      C3694   1.405       .  A
C3689      C3707   1.450       .  S
C3690      C3695   1.486       .  S
C3690      C3691   1.412       .  A
C3691      C3692   1.409       .  A
C3691      C3696   1.451       .  S
C3692      C3693   1.408       .  A
C3692      C3708   1.450       .  S
C3693      C3694   1.412       .  A
C3694      C3697   1.452       .  S
C3695      C3698   1.407       .  A
C3695      C3702   1.406       .  A
C3696      N3713   1.157       .  T
C3697      N3715   1.157       .  T
C3698      C3699   1.405       .  A
C3698      C3703   1.451       .  S
C3699      C3700   1.416       .  A
C3699      C3705   1.451       .  S
C3700      C3701   1.422       .  A
C3701      C3702   1.410       .  A
C3701      C3704   1.451       .  S
C3702      C3706   1.451       .  S
C3703      N3710   1.157       .  T
C3704      N3711   1.157       .  T
C3705      N3709   1.157       .  T
C3706      N3712   1.157       .  T
C3707      N3716   1.157       .  T
C3708      N3714   1.157       .  T
C3717      C3718   1.408       .  A
C3717      C3722   1.405       .  A
C3717      C3735   1.451       .  S
C3718      C3723   1.487       .  S
C3718      C3719   1.412       .  A
C3719      C3720   1.409       .  A
C3719      C3724   1.450       .  S
C3720      C3721   1.409       .  A
C3720      C3736   1.451       .  S
C3721      C3722   1.413       .  A
C3722      C3725   1.452       .  S
C3723      C3726   1.411       .  A
C3723      C3730   1.405       .  A
C3724      N3741   1.157       .  T
C3725      N3743   1.157       .  T
C3726      C3727   1.411       .  A
C3726      C3731   1.450       .  S
C3727      C3728   1.414       .  A
C3727      C3733   1.450       .  S
C3728      C3729   1.415       .  A
C3729      C3730   1.404       .  A
C3729      C3732   1.448       .  S
C3730      C3734   1.452       .  S
C3731      N3738   1.157       .  T
C3732      N3739   1.156       .  T
C3733      N3737   1.157       .  T
C3734      N3740   1.157       .  T
C3735      N3744   1.157       .  T
C3736      N3742   1.157       .  T
C3745      C3746   1.411   1_554  A
C3745      C3750   1.412       .  A
C3745      C3763   1.450       .  S
C3746      C3751   1.497       .  S
C3746      C3747   1.411       .  A
C3747      C3748   1.409       .  A
C3747      C3752   1.451       .  S
C3748      C3749   1.412       .  A
C3748      C3764   1.450       .  S
C3749      C3750   1.412   1_556  A
C3750      C3753   1.450       .  S
C3751      C3754   1.406   1_556  A
C3751      C3758   1.407       .  A
C3752      N3769   1.157       .  T
C3753      N3771   1.157       .  T
C3754      C3755   1.411       .  A
C3754      C3759   1.452       .  S
C3755      C3756   1.426   1_554  A
C3755      C3761   1.452       .  S
C3756      C3757   1.425       .  A
C3757      C3758   1.414       .  A
C3757      C3760   1.451       .  S
C3758      C3762   1.452       .  S
C3759      N3766   1.157       .  T
C3760      N3767   1.158       .  T
C3761      N3765   1.158       .  T
C3762      N3768   1.157       .  T
C3763      N3772   1.157       .  T
C3764      N3770   1.157       .  T
C3773      C3774   1.408       .  A
C3773      C3778   1.409       .  A
C3773      C3791   1.451       .  S
C3774      C3779   1.496       .  S
C3774      C3775   1.409       .  A
C3775      C3776   1.412       .  A
C3775      C3780   1.451       .  S
C3776      C3777   1.421       .  A
C3776      C3792   1.451       .  S
C3777      C3778   1.419       .  A
C3778      C3781   1.452       .  S
C3779      C3782   1.407       .  A
C3779      C3786   1.410       .  A
C3780      N3797   1.157       .  T
C3781      N3799   1.157       .  T
C3782      C3783   1.410       .  A
C3782      C3787   1.452       .  S
C3783      C3784   1.418       .  A
C3783      C3789   1.449       .  S
C3784      C3785   1.418       .  A
C3785      C3786   1.413       .  A
C3785      C3788   1.450       .  S
C3786      C3790   1.451       .  S
C3787      N3794   1.157       .  T
C3788      N3795   1.157       .  T
C3789      N3793   1.157       .  T
C3790      N3796   1.157       .  T
C3791      N3800   1.157       .  T
C3792      N3798   1.158       .  T
C3801      C3802   1.409       .  A
C3801      C3806   1.414       .  A
C3801      C3819   1.451       .  S
C3802      C3807   1.504       .  S
C3802      C3803   1.410       .  A
C3803      C3804   1.414       .  A
C3803      C3808   1.452       .  S
C3804      C3805   1.426       .  A
C3804      C3820   1.452       .  S
C3805      C3806   1.424       .  A
C3806      C3809   1.452       .  S
C3807      C3810   1.414       .  A
C3807      C3814   1.413       .  A
C3808      N3825   1.157       .  T
C3809      N3827   1.158       .  T
C3810      C3811   1.415       .  A
C3810      C3815   1.450       .  S
C3811      C3812   1.412       .  A
C3811      C3817   1.450       .  S
C3812      C3813   1.411       .  A
C3813      C3814   1.411       .  A
C3813      C3816   1.450       .  S
C3814      C3818   1.450       .  S
C3815      N3822   1.157       .  T
C3816      N3823   1.157       .  T
C3817      N3821   1.157       .  T
C3818      N3824   1.157       .  T
C3819      N3828   1.157       .  T
C3820      N3826   1.158       .  T
C3829      C3830   1.409   1_556  A
C3829      C3834   1.406       .  A
C3829      C3847   1.452       .  S
C3830      C3835   1.487       .  S
C3830      C3831   1.408       .  A
C3831      C3832   1.408       .  A
C3831      C3836   1.450       .  S
C3832      C3833   1.416       .  A
C3832      C3848   1.451       .  S
C3833      C3834   1.416   1_554  A
C3834      C3837   1.451       .  S
C3835      C3838   1.407   1_454  A
C3835      C3842   1.408       .  A
C3836      N3853   1.157       .  T
C3837      N3855   1.157       .  T
C3838      C3839   1.408       .  A
C3838      C3843   1.451   1_655  S
C3839      C3840   1.419   1_556  A
C3839      C3845   1.452       .  S
C3840      C3841   1.418       .  A
C3841      C3842   1.407   1_655  A
C3841      C3844   1.452       .  S
C3842      C3846   1.452       .  S
C3843      N3850   1.157       .  T
C3844      N3851   1.157       .  T
C3845      N3849   1.157       .  T
C3846      N3852   1.157       .  T
C3847      N3856   1.157       .  T
C3848      N3854   1.157       .  T
C3857      C3858   1.410       .  A
C3857      C3862   1.407       .  A
C3857      C3875   1.450       .  S
C3858      C3863   1.486       .  S
C3858      C3859   1.409       .  A
C3859      C3860   1.407       .  A
C3859      C3864   1.451       .  S
C3860      C3861   1.411       .  A
C3860      C3876   1.450       .  S
C3861      C3862   1.409       .  A
C3862      C3865   1.451       .  S
C3863      C3866   1.405       .  A
C3863      C3870   1.407       .  A
C3864      N3881   1.157       .  T
C3865      N3883   1.157       .  T
C3866      C3867   1.405       .  A
C3866      C3871   1.453       .  S
C3867      C3868   1.422       .  A
C3867      C3873   1.452       .  S
C3868      C3869   1.419       .  A
C3869      C3870   1.409       .  A
C3869      C3872   1.452       .  S
C3870      C3874   1.451       .  S
C3871      N3878   1.157       .  T
C3872      N3879   1.157       .  T
C3873      N3877   1.157       .  T
C3874      N3880   1.157       .  T
C3875      N3884   1.157       .  T
C3876      N3882   1.157       .  T
C3885      C3886   1.411       .  A
C3885      C3890   1.407       .  A
C3885      C3903   1.450       .  S
C3886      C3891   1.486       .  S
C3886      C3887   1.410       .  A
C3887      C3888   1.406       .  A
C3887      C3892   1.450       .  S
C3888      C3889   1.410       .  A
C3888      C3904   1.452       .  S
C3889      C3890   1.409       .  A
C3890      C3893   1.450       .  S
C3891      C3894   1.408       .  A
C3891      C3898   1.409       .  A
C3892      N3909   1.157       .  T
C3893      N3911   1.157       .  T
C3894      C3895   1.408       .  A
C3894      C3899   1.451       .  S
C3895      C3896   1.416       .  A
C3895      C3901   1.451       .  S
C3896      C3897   1.415       .  A
C3897      C3898   1.407       .  A
C3897      C3900   1.452       .  S
C3898      C3902   1.451       .  S
C3899      N3906   1.157       .  T
C3900      N3907   1.157       .  T
C3901      N3905   1.157       .  T
C3902      N3908   1.157       .  T
C3903      N3912   1.157       .  T
C3904      N3910   1.157       .  T
C3913      C3914   1.412       .  A
C3913      C3918   1.409       .  A
C3913      C3931   1.451       .  S
C3914      C3919   1.495       .  S
C3914      C3915   1.411       .  A
C3915      C3916   1.410       .  A
C3915      C3920   1.450   1_554  S
C3916      C3917   1.410       .  A
C3916      C3932   1.450   1_554  S
C3917      C3918   1.410       .  A
C3918      C3921   1.451       .  S
C3919      C3922   1.405       .  A
C3919      C3926   1.406   1_554  A
C3920      N3937   1.157       .  T
C3921      N3939   1.157       .  T
C3922      C3923   1.410       .  A
C3922      C3927   1.453       .  S
C3923      C3924   1.429       .  A
C3923      C3929   1.452       .  S
C3924      C3925   1.427   1_554  A
C3925      C3926   1.412       .  A
C3925      C3928   1.452       .  S
C3926      C3930   1.452       .  S
C3927      N3934   1.157       .  T
C3928      N3935   1.158       .  T
C3929      N3933   1.158       .  T
C3930      N3936   1.157       .  T
C3931      N3940   1.157       .  T
C3932      N3938   1.157       .  T
C3941      C3942   1.413       .  A
C3941      C3946   1.412       .  A
C3941      C3959   1.450       .  S
C3942      C3947   1.499       .  S
C3942      C3943   1.414       .  A
C3943      C3944   1.410       .  A
C3943      C3948   1.451       .  S
C3944      C3945   1.411       .  A
C3944      C3960   1.451       .  S
C3945      C3946   1.410       .  A
C3946      C3949   1.451       .  S
C3947      C3950   1.408       .  A
C3947      C3954   1.409       .  A
C3948      N3965   1.157       .  T
C3949      N3967   1.157       .  T
C3950      C3951   1.411       .  A
C3950      C3955   1.453       .  S
C3951      C3952   1.427       .  A
C3951      C3957   1.452       .  S
C3952      C3953   1.422       .  A
C3953      C3954   1.413       .  A
C3953      C3956   1.452       .  S
C3954      C3958   1.451       .  S
C3955      N3962   1.157       .  T
C3956      N3963   1.158       .  T
C3957      N3961   1.158       .  T
C3958      N3964   1.157       .  T
C3959      N3968   1.157       .  T
C3960      N3966   1.157       .  T
C3969      C3970   1.408       .  A
C3969      C3974   1.410       .  A
C3969      C3987   1.451       .  S
C3970      C3975   1.492       .  S
C3970      C3971   1.408       .  A
C3971      C3972   1.409       .  A
C3971      C3976   1.451       .  S
C3972      C3973   1.419       .  A
C3972      C3988   1.452       .  S
C3973      C3974   1.419       .  A
C3974      C3977   1.451       .  S
C3975      C3978   1.408       .  A
C3975      C3982   1.410       .  A
C3976      N3993   1.157       .  T
C3977      N3995   1.157       .  T
C3978      C3979   1.406       .  A
C3978      C3983   1.453       .  S
C3979      C3980   1.416       .  A
C3979      C3985   1.448       .  S
C3980      C3981   1.416       .  A
C3981      C3982   1.411       .  A
C3981      C3984   1.451       .  S
C3982      C3986   1.450       .  S
C3983      N3990   1.157       .  T
C3984      N3991   1.157       .  T
C3985      N3989   1.156       .  T
C3986      N3992   1.157       .  T
C3987      N3996   1.157       .  T
C3988      N3994   1.158       .  T
C3997      C3998   1.406   1_554  A
C3997      C4002   1.407       .  A
C3997      C4015   1.451       .  S
C3998      C4003   1.487   1_556  S
C3998      C3999   1.409       .  A
C3999      C4000   1.408       .  A
C3999      C4004   1.453       .  S
C4000      C4001   1.418       .  A
C4000      C4016   1.451       .  S
C4001      C4002   1.420   1_556  A
C4002      C4005   1.452       .  S
C4003      C4006   1.408   1_554  A
C4003      C4010   1.408       .  A
C4004      N4021   1.157       .  T
C4005      N4023   1.157       .  T
C4006      C4007   1.410   1_455  A
C4006      C4011   1.450       .  S
C4007      C4008   1.414   1_556  A
C4007      C4013   1.450       .  S
C4008      C4009   1.418       .  A
C4009      C4010   1.405   1_655  A
C4009      C4012   1.452       .  S
C4010      C4014   1.453       .  S
C4011      N4018   1.157       .  T
C4012      N4019   1.157       .  T
C4013      N4017   1.157       .  T
C4014      N4020   1.157       .  T
C4015      N4024   1.157       .  T
C4016      N4022   1.158       .  T
C4025      C4026   1.411       .  A
C4025      C4030   1.405       .  A
C4025      C4043   1.451       .  S
C4026      C4031   1.484       .  S
C4026      C4027   1.410       .  A
C4027      C4028   1.405       .  A
C4027      C4032   1.451       .  S
C4028      C4029   1.409       .  A
C4028      C4044   1.452       .  S
C4029      C4030   1.410       .  A
C4030      C4033   1.452       .  S
C4031      C4034   1.408       .  A
C4031      C4038   1.407       .  A
C4032      N4049   1.157       .  T
C4033      N4051   1.157       .  T
C4034      C4035   1.406       .  A
C4034      C4039   1.452       .  S
C4035      C4036   1.417       .  A
C4035      C4041   1.452       .  S
C4036      C4037   1.418       .  A
C4037      C4038   1.406       .  A
C4037      C4040   1.452       .  S
C4038      C4042   1.452       .  S
C4039      N4046   1.157       .  T
C4040      N4047   1.158       .  T
C4041      N4045   1.158       .  T
C4042      N4048   1.157       .  T
C4043      N4052   1.157       .  T
C4044      N4050   1.157       .  T
C4053      C4054   1.407       .  A
C4053      C4058   1.407       .  A
C4053      C4071   1.453       .  S
C4054      C4059   1.486       .  S
C4054      C4055   1.407       .  A
C4055      C4056   1.407       .  A
C4055      C4060   1.451       .  S
C4056      C4057   1.419       .  A
C4056      C4072   1.451       .  S
C4057      C4058   1.419       .  A
C4058      C4061   1.450       .  S
C4059      C4062   1.410       .  A
C4059      C4066   1.410       .  A
C4060      N4077   1.157       .  T
C4061      N4079   1.157       .  T
C4062      C4063   1.406       .  A
C4062      C4067   1.451       .  S
C4063      C4064   1.410       .  A
C4063      C4069   1.451       .  S
C4064      C4065   1.410       .  A
C4065      C4066   1.407       .  A
C4065      C4068   1.451       .  S
C4066      C4070   1.451       .  S
C4067      N4074   1.157       .  T
C4068      N4075   1.157       .  T
C4069      N4073   1.157       .  T
C4070      N4076   1.157       .  T
C4071      N4080   1.157       .  T
C4072      N4078   1.157       .  T
