geometry optimzed in LAMMPS
_audit_creation_date              2020-11-30 
_audit_creation_method            'lammps2cif' 
_symmetry_space_group_name_H-M    'P1' 
_symmetry_Int_Tables_number       1 
_symmetry_cell_setting            triclinic 
loop_ 
_symmetry_equiv_pos_as_xyz 
  x,y,z 
_cell_length_a                    47.189405899391325 
_cell_length_b                    39.96406522352172 
_cell_length_c                    26.315618373071384 
_cell_angle_alpha                 90.09754686219244 
_cell_angle_beta                  90.1455737785997 
_cell_angle_gamma                 90.13531160181537 
loop_ 
_atom_site_label 
_atom_site_type_symbol 
_atom_site_fract_x 
_atom_site_fract_y 
_atom_site_fract_z 
_atom_site_charge 
C1          C  0.34937391  0.30186926  0.00807511     0.03570
C2          C  0.35328285  0.26647650  0.00602160    -0.12580
C3          C  0.32974890  0.24474650  0.00404108     0.01070
C4          C  0.30253212  0.25880307  0.00396997    -0.11100
C5          C  0.29826597  0.29316962  0.00630397     0.03570
C6          C  0.32166697  0.31479748  0.00989350    -0.10520
H7          H  0.37439200  0.25605241  0.00435185     0.09160
H8          H  0.28399744  0.24269810  0.00248186     0.06690
H9          H  0.31837495  0.34151852  0.01107164     0.06540
C10         C  0.34984767  0.30176734  0.51000904     0.03570
C11         C  0.35371346  0.26638712  0.50726104    -0.12580
C12         C  0.33015001  0.24473021  0.50476119     0.01070
C13         C  0.30295558  0.25883693  0.50512074    -0.11100
C14         C  0.29872545  0.29320935  0.50832322     0.03570
C15         C  0.32217128  0.31474852  0.51218926    -0.10520
H16         H  0.37481900  0.25593570  0.50544788     0.09280
H17         H  0.28441235  0.24276341  0.50326847     0.06690
H18         H  0.31894308  0.34147976  0.51366415     0.06540
Zn19       Zn  0.29392580  0.15123709  0.95626023     1.49720
Zn20       Zn  0.34574023  0.13718553  0.03621926     1.49360
Zn21       Zn  0.28352637  0.10309302  0.04692240     1.49110
Zn22       Zn  0.32318370  0.08334196  0.95553356     1.49480
O23         O  0.31208935  0.11935071  0.99973327    -1.83680
O24         O  0.31040907  0.19455604  0.97460573    -0.74310
O25         O  0.33817524  0.13400588  0.11290924    -0.74130
O26         O  0.24523242  0.12418101  0.03904026    -0.73650
O27         O  0.34962634  0.18920404  0.02118178    -0.74330
O28         O  0.25186537  0.15489007  0.96996156    -0.73930
O29         O  0.29604003  0.10940701  0.11818985    -0.74510
O30         O  0.29588339  0.04622085  0.95974189    -0.73900
O31         O  0.38024869  0.10452167  0.02354349    -0.74660
O32         O  0.27553420  0.05563491  0.03465794    -0.74050
O33         O  0.35943373  0.06400621  0.97866076    -0.74510
O34         O  0.32600266  0.09687147  0.88219230    -0.74420
O35         O  0.30093642  0.14354638  0.88156227    -0.74210
C36         C  0.33099013  0.20754692  0.99893028     0.77580
C37         C  0.31779989  0.12217941  0.13926732     0.78070
C38         C  0.23586449  0.14369740  0.00502891     0.77030
C39         C  0.27973549  0.03755515  0.99582221     0.77400
C40         C  0.38046942  0.07499544  0.00378613     0.78540
C41         C  0.31494700  0.12119809  0.85816779     0.77590
Zn42       Zn  0.29424889  0.15096052  0.45739207     1.49720
Zn43       Zn  0.34623214  0.13730682  0.53630481     1.49360
Zn44       Zn  0.28433577  0.10211472  0.54747497     1.49110
Zn45       Zn  0.32438558  0.08359151  0.45537021     1.49480
O46         O  0.31271110  0.11909868  0.50023228    -1.83680
O47         O  0.31073724  0.19455691  0.47503133    -0.74310
O48         O  0.33839453  0.13456926  0.61260578    -0.74130
O49         O  0.24602816  0.12371777  0.54108513    -0.73650
O50         O  0.35011756  0.18920438  0.52114379    -0.74330
O51         O  0.25241184  0.15452543  0.47203012    -0.73930
O52         O  0.29755754  0.10670662  0.61898474    -0.74510
O53         O  0.29687092  0.04643271  0.45802951    -0.73900
O54         O  0.38083164  0.10448727  0.52463546    -0.74660
O55         O  0.27593396  0.05501171  0.53270964    -0.74050
O56         O  0.36031539  0.06393283  0.47942872    -0.74510
O57         O  0.32789948  0.09773749  0.38212302    -0.74420
O58         O  0.30014053  0.14247036  0.38277455    -0.74210
C59         C  0.33138996  0.20755145  0.49919799     0.77580
C60         C  0.31892726  0.12095088  0.63912752     0.78070
C61         C  0.23655158  0.14333824  0.50726215     0.77030
C62         C  0.28037570  0.03742107  0.49343548     0.77400
C63         C  0.38116333  0.07489934  0.50506824     0.78540
C64         C  0.31484718  0.12096705  0.35889060     0.77590
C65         C  0.15537448  0.14713071  0.00942574     0.03570
C66         C  0.18307412  0.13418397  0.01142414    -0.12580
C67         C  0.20648017  0.15578296  0.00793118     0.01070
C68         C  0.20221195  0.19016229  0.00553784    -0.11100
C69         C  0.17499157  0.20422729  0.00533231     0.03570
C70         C  0.15145755  0.18251569  0.00727960    -0.10520
H71         H  0.18635339  0.10744109  0.01253573     0.09160
H72         H  0.22073903  0.20626693  0.00400142     0.06690
H73         H  0.13034149  0.19293134  0.00546264     0.06540
C74         C  0.15607370  0.14663521  0.51040942     0.03570
C75         C  0.18378077  0.13375494  0.51326893    -0.12580
C76         C  0.20716754  0.15542212  0.51019627     0.01070
C77         C  0.20286529  0.18980637  0.50720310    -0.11100
C78         C  0.17563748  0.20381917  0.50608794     0.03570
C79         C  0.15213480  0.18202752  0.50771249    -0.10520
H80         H  0.18713006  0.10699132  0.51458240     0.09160
H81         H  0.22136651  0.20595632  0.50577710     0.06690
H82         H  0.13102967  0.19238325  0.50511722     0.06540
Zn83       Zn  0.21036394  0.29744763  0.95608674     1.49720
Zn84       Zn  0.22162310  0.34577464  0.04686771     1.49360
Zn85       Zn  0.18168653  0.36603901  0.95595013     1.49110
Zn86       Zn  0.15914629  0.31206770  0.03609397     1.49480
O87         O  0.19272615  0.32974005  0.99963273    -1.83680
O88         O  0.25259337  0.29399051  0.96897075    -0.74310
O89         O  0.22991020  0.39328145  0.03539389    -0.74130
O90         O  0.17961656  0.35330592  0.88227039    -0.73650
O91         O  0.25973846  0.32461426  0.03821224    -0.74330
O92         O  0.20283074  0.30502343  0.88152168    -0.73930
O93         O  0.20887619  0.40312336  0.96114540    -0.74510
O94         O  0.12465480  0.34473654  0.02349355    -0.73900
O95         O  0.20949128  0.33918464  0.11814933    -0.74660
O96         O  0.14533733  0.38520164  0.97869226    -0.74050
O97         O  0.16692431  0.31552256  0.11261492    -0.74510
O98         O  0.15516388  0.25992513  0.02166544    -0.74420
O99         O  0.19417422  0.25416474  0.97501251    -0.74210
C100        C  0.26885739  0.30519257  0.00386149     0.77580
C101        C  0.22540603  0.41155995  0.99694434     0.78070
C102        C  0.19005299  0.32854080  0.85850046     0.77030
C103        C  0.12437771  0.37423589  0.00380346     0.77400
C104        C  0.18756751  0.32686040  0.13901917     0.78540
C105        C  0.17371701  0.24138292  0.99965119     0.77590
Zn106      Zn  0.22174143  0.34633214  0.54669389     1.49720
Zn107      Zn  0.21117762  0.29728171  0.45697583     1.49360
Zn108      Zn  0.15949870  0.31184104  0.53593467     1.49110
Zn109      Zn  0.18173556  0.36534172  0.45498848     1.49480
O110        O  0.19307425  0.32959331  0.49963139    -1.83680
O111        O  0.26015306  0.32529753  0.53917949    -0.74310
O112        O  0.19480928  0.25374562  0.47526331    -0.74130
O113        O  0.16713165  0.31576905  0.61245266    -0.73650
O114        O  0.25313360  0.29372920  0.47095622    -0.74330
O115        O  0.20925139  0.34028848  0.61793937    -0.73930
O116        O  0.15579583  0.25958417  0.52193332    -0.74510
O117        O  0.14562944  0.38479829  0.47807311    -0.73900
O118        O  0.20491234  0.30546958  0.38243663    -0.74660
O119        O  0.12486735  0.34433615  0.52274821    -0.74050
O120        O  0.17863713  0.35142867  0.38156210    -0.74510
O121        O  0.20914981  0.40259211  0.45879763    -0.74420
O122        O  0.22961336  0.39387576  0.53390872    -0.74210
C123        C  0.26933305  0.30533192  0.50557822     0.77580
C124        C  0.17433823  0.24099020  0.49996537     0.78070
C125        C  0.18750104  0.32762864  0.63898926     0.77030
C126        C  0.12461868  0.37383445  0.50302011     0.77400
C127        C  0.19094089  0.32759209  0.35842821     0.78540
C128        C  0.22544355  0.41160851  0.49470675     0.77590
C129        C  0.40529680  0.05218786  0.00856538     0.03570
C130        C  0.43303577  0.06529991  0.01015886    -0.12580
C131        C  0.45639967  0.04374397  0.00660255     0.01070
C132        C  0.45208856  0.00933438  0.00425115    -0.11100
C133        C  0.42488396  0.49509859  0.00417181     0.03570
C134        C  0.40134644  0.01672839  0.00636182    -0.10520
H135        H  0.43641602  0.09212541  0.01103116     0.09160
H136        H  0.47061149  0.49332092  0.00278390     0.06690
H137        H  0.38019533  0.00618807  0.00475120     0.06540
C138        C  0.40590660  0.05199964  0.51063670     0.03570
C139        C  0.40191259  0.01654291  0.50823952    -0.12580
C140        C  0.42542436  0.49483664  0.50653137     0.01070
C141        C  0.45265609  0.00898531  0.50738202    -0.11100
C142        C  0.45701524  0.04340529  0.50999111     0.03570
C143        C  0.43366200  0.06502412  0.51295376    -0.10520
H144        H  0.38075731  0.00606637  0.50594345     0.09160
H145        H  0.47113327  0.49289233  0.50600249     0.06690
H146        H  0.43708854  0.09184276  0.51373443     0.06540
Zn147      Zn  0.47121161  0.35315315  0.04753690     1.49720
Zn148      Zn  0.46082148  0.40152009  0.95703591     1.49360
Zn149      Zn  0.43141251  0.33336655  0.95532649     1.49110
Zn150      Zn  0.40886161  0.38717787  0.03527118     1.49480
O151        O  0.44264600  0.36937506  0.99984670    -1.83680
O152        O  0.00989690  0.37339618  0.03869974    -0.74310
O153        O  0.45446436  0.39327272  0.88253707    -0.74130
O154        O  0.45870465  0.29618007  0.96021819    -0.73650
O155        O  0.50276484  0.40525124  0.97101662    -0.74330
O156        O  0.47815778  0.30518933  0.03632356    -0.73930
O157        O  0.42833097  0.34707954  0.88172768    -0.74510
O158        O  0.37433658  0.35446046  0.02241147    -0.73900
O159        O  0.44432999  0.44496199  0.97485562    -0.74660
O160        O  0.39521965  0.31382580  0.97837123    -0.74050
O161        O  0.40501508  0.43930512  0.02069651    -0.74510
O162        O  0.41624776  0.38381522  0.11166981    -0.74420
O163        O  0.45916648  0.36103570  0.11895677    -0.74210
C164        C  0.01904502  0.39344038  0.00522043     0.77580
C165        C  0.44023505  0.37122237  0.85857999     0.78070
C166        C  0.47413005  0.28715461  0.99725733     0.77030
C167        C  0.37416504  0.32481221  0.00312660     0.77400
C168        C  0.42368778  0.45783159  0.99887485     0.78540
C169        C  0.43690952  0.37330036  0.13860285     0.77590
Zn170      Zn  0.43168192  0.33270718  0.45576207     1.49720
Zn171      Zn  0.40985779  0.38675634  0.53712590     1.49360
Zn172      Zn  0.47200016  0.35238880  0.54602772     1.49110
Zn173      Zn  0.46051618  0.40134477  0.45599769     1.49480
O174        O  0.44303994  0.36896454  0.49964822    -1.83680
O175        O  0.39535969  0.31382556  0.47909807    -0.74310
O176        O  0.41840477  0.38362778  0.61352024    -0.74130
O177        O  0.47916974  0.30460392  0.53485561    -0.73650
O178        O  0.37519465  0.35401325  0.52523257    -0.74330
O179        O  0.45847791  0.29514745  0.46015970    -0.73930
O180        O  0.46076946  0.35957914  0.61761501    -0.74510
O181        O  0.50274364  0.40475540  0.46852777    -0.73900
O182        O  0.40580485  0.43891492  0.52279742    -0.74660
O183        O  0.01034748  0.37296983  0.53620968    -0.74050
O184        O  0.44448408  0.44493182  0.47528860    -0.74510
O185        O  0.45273069  0.39339245  0.38138255    -0.74420
O186        O  0.42892323  0.34578234  0.38230943    -0.74210
C187        C  0.37465989  0.32464056  0.50496908     0.77580
C188        C  0.43940949  0.37257104  0.63916768     0.78070
C189        C  0.47448087  0.28626025  0.49641050     0.77030
C190        C  0.01924996  0.39297211  0.50247106     0.77400
C191        C  0.42416516  0.45761087  0.50044724     0.78540
C192        C  0.43929454  0.37033374  0.35799415     0.77590
C193        C  0.09958947  0.39706399  0.00881277     0.03570
C194        C  0.07186706  0.38395951  0.01085142    -0.12580
C195        C  0.04848812  0.40552127  0.00780327     0.01070
C196        C  0.05278094  0.43993260  0.00544745    -0.11100
C197        C  0.07997603  0.45415144  0.00489178     0.03570
C198        C  0.10352870  0.43252113  0.00661593    -0.10520
H199        H  0.06848598  0.35713551  0.01166377     0.09160
H200        H  0.03426255  0.45596834  0.00423724     0.06690
H201        H  0.12466511  0.44305758  0.00464542     0.06540
C202        C  0.09978268  0.39663857  0.50750400     0.03570
C203        C  0.07205187  0.38352976  0.50876580    -0.12580
C204        C  0.04869510  0.40506352  0.50470722     0.01070
C205        C  0.05299559  0.43945682  0.50210269    -0.11100
C206        C  0.08019000  0.45370379  0.50257502     0.03570
C207        C  0.10372590  0.43209238  0.50529498    -0.10520
H208        H  0.06867360  0.35670990  0.50984009     0.09160
H209        H  0.03446875  0.45545234  0.50032864     0.06690
H210        H  0.12487849  0.44264033  0.50413660     0.06540
Zn211      Zn  0.09568383  0.06211910  0.03619850     1.49720
Zn212      Zn  0.07327896  0.11597820  0.95537670     1.49360
Zn213      Zn  0.04415085  0.04752564  0.95629536     1.49110
Zn214      Zn  0.03357634  0.09645793  0.04655362     1.49480
O215        O  0.06213530  0.07990416  0.99953640    -1.83680
O216        O  0.13022788  0.09478627  0.02402398    -0.74310
O217        O  0.07584826  0.10227768  0.88190733    -0.74130
O218        O  0.06052754  0.00411425  0.97493432    -0.73650
O219        O  0.10970830  0.13504443  0.97859786    -0.74330
O220        O  0.09970359  0.01002339  0.02150538    -0.73930
O221        O  0.05122324  0.05514310  0.88161599    -0.74510
O222        O  0.49504431  0.07589193  0.03758019    -0.73900
O223        O  0.04643455  0.15359946  0.96012469    -0.74660
O224        O  0.00206449  0.04400748  0.96972327    -0.74050
O225        O  0.02642811  0.14425606  0.03528604    -0.74510
O226        O  0.04563161  0.08947921  0.11796513    -0.74420
O227        O  0.08797943  0.06549065  0.11269661    -0.74210
C228        C  0.13058171  0.12421894  0.00415529     0.77580
C229        C  0.06497202  0.07765064  0.85801290     0.78070
C230        C  0.08112539  0.99138449  0.99938949     0.77030
C231        C  0.48584368  0.05582991  0.00397910     0.77400
C232        C  0.03079877  0.16255720  0.99679245     0.78540
C233        C  0.06744775  0.07695494  0.13896159     0.77590
Zn234      Zn  0.09623982  0.06126713  0.53580138     1.49720
Zn235      Zn  0.03452930  0.09662927  0.54747190     1.49360
Zn236      Zn  0.07434202  0.11530413  0.45524251     1.49110
Zn237      Zn  0.04416310  0.04764027  0.45707441     1.49480
O238        O  0.06273365  0.07961662  0.49993280    -1.83680
O239        O  0.08849813  0.06391447  0.61218873    -0.74310
O240        O  0.02683817  0.14400009  0.53403534    -0.74130
O241        O  0.11056657  0.13451147  0.47888818    -0.73650
O242        O  0.04765519  0.09151487  0.61889498    -0.74330
O243        O  0.13087419  0.09415453  0.52437979    -0.73930
O244        O  0.04742370  0.15291445  0.45917541    -0.74510
O245        O  0.04993021  0.05616763  0.38248222    -0.73900
O246        O  0.49596153  0.07543007  0.54053447    -0.74660
O247        O  0.07717116  0.10145784  0.38169325    -0.74050
O248        O  0.00232880  0.04399431  0.47199395    -0.74510
O249        O  0.06070872  0.00404255  0.47407624    -0.74420
O250        O  0.10013667  0.00934415  0.52007054    -0.74210
C251        C  0.06902952  0.07735312  0.63886385     0.77580
C252        C  0.03140551  0.16194869  0.49525979     0.78070
C253        C  0.13132433  0.12365429  0.50468780     0.77030
C254        C  0.06426852  0.07797567  0.35846285     0.77400
C255        C  0.48644979  0.05551738  0.50695377     0.78540
C256        C  0.08139840  0.99098848  0.49786937     0.77590
C257        C  0.06659091  0.04665606  0.72046219    -0.08710
C258        C  0.07087581  0.07679390  0.69454964     0.07490
C259        C  0.07412213  0.10662823  0.72225564    -0.02480
C260        C  0.07286895  0.10606523  0.77526974    -0.06930
C261        C  0.06773878  0.07609869  0.80178500     0.06600
C262        C  0.06474798  0.04600610  0.77359856    -0.01950
Br263      Br  0.05836208  0.00307467  0.80435925    -0.01650
H264        H  0.06379555  0.02364947  0.69914286     0.10510
H265        H  0.07517292  0.12947066  0.79571636     0.08530
Br266      Br  0.08021736  0.14878678  0.68909578    -0.02080
C267        C  0.09134092  0.08097420  0.27740851    -0.08710
C268        C  0.06538624  0.07639910  0.30249581     0.07490
C269        C  0.04058579  0.07143236  0.27352606    -0.02480
C270        C  0.04207988  0.07102024  0.22059434    -0.06930
C271        C  0.06797854  0.07547112  0.19518840     0.06600
C272        C  0.09288038  0.08033792  0.22418342    -0.01950
Br273      Br  0.12912844  0.08858683  0.19366687    -0.01650
H274        H  0.11049290  0.08517024  0.29932524     0.10510
H275        H  0.02267557  0.06758201  0.19907906     0.08530
Br276      Br  0.50366735  0.06791331  0.30378215    -0.02080
C277        C  0.01823283  0.25389758  0.49823864    -0.08710
C278        C  0.48868552  0.25434564  0.49348834     0.07490
C279        C  0.47334239  0.22444103  0.48749984    -0.02480
C280        C  0.48783298  0.19422665  0.48739263    -0.06930
C281        C  0.01735317  0.19385212  0.49219520     0.06600
C282        C  0.03273171  0.22373154  0.49717751    -0.01950
Br283      Br  0.07312325  0.22434614  0.50552223    -0.01650
H284        H  0.02997979  0.27705031  0.50294594     0.10510
H285        H  0.47608815  0.17096981  0.48411722     0.08530
Br286      Br  0.43274686  0.22344217  0.48290847    -0.02080
C287        C  0.46396908  0.37980149  0.77618644    -0.08710
C288        C  0.43888263  0.37304160  0.80264657     0.07490
C289        C  0.41358045  0.36780835  0.77512108    -0.02480
C290        C  0.41389816  0.36884234  0.72186574    -0.06930
C291        C  0.43926884  0.37440453  0.69531803     0.06600
C292        C  0.46447572  0.38026508  0.72317685    -0.01950
Br293      Br  0.00026999  0.39014658  0.69168802    -0.01650
H294        H  0.48351683  0.38410153  0.79693214     0.10510
H295        H  0.39436874  0.36449033  0.70113355     0.08530
Br296      Br  0.37794316  0.36050398  0.80830133    -0.02080
C297        C  0.41793402  0.35235991  0.22008050    -0.08710
C298        C  0.43533879  0.37495909  0.19422930     0.07490
C299        C  0.45308469  0.39656887  0.22195123    -0.02480
C300        C  0.45336205  0.39521270  0.27500769    -0.06930
C301        C  0.43654536  0.37193399  0.30160606     0.06600
C302        C  0.41848713  0.35035842  0.27320404    -0.01950
Br303      Br  0.39418577  0.31711162  0.30302437    -0.01650
H304        H  0.40450270  0.33536992  0.19867600     0.10510
H305        H  0.46743452  0.41200045  0.29537141     0.08530
Br306      Br  0.47745162  0.42820410  0.18874291    -0.02080
C307        C  0.48711621  0.19506823  0.99843123    -0.08710
C308        C  0.01668123  0.19455542  0.99444046     0.07490
C309        C  0.03213895  0.22447638  0.99011980    -0.02480
C310        C  0.01774250  0.25476241  0.99082675    -0.06930
C311        C  0.48819284  0.25520451  0.99473969     0.06600
C312        C  0.47270830  0.22531239  0.99808012    -0.01950
Br313      Br  0.43224962  0.22473032  0.00476290    -0.01650
H314        H  0.47528263  0.17190085  0.00191133     0.10510
H315        H  0.02956844  0.27800318  0.98859289     0.08530
Br316      Br  0.07274033  0.22531348  0.98641972    -0.02080
C317        C  0.16987178  0.30681337  0.77747063    -0.08710
C318        C  0.18874596  0.32820727  0.80284293     0.07490
C319        C  0.20659310  0.34923648  0.77471758    -0.02480
C320        C  0.20540798  0.34875234  0.72180907    -0.06930
C321        C  0.18655443  0.32742881  0.69552767     0.06600
C322        C  0.16849067  0.30629250  0.72418643    -0.01950
Br323      Br  0.14229119  0.27522326  0.69394728    -0.01650
H324        H  0.15617172  0.29045369  0.79921484     0.10510
H325        H  0.21953307  0.36523713  0.70120533     0.08530
Br326      Br  0.23377033  0.37818042  0.80706358    -0.02080
C327        C  0.21307086  0.32167237  0.22083807    -0.08710
C328        C  0.18707698  0.32540548  0.19525619     0.07490
C329        C  0.16210663  0.32943589  0.22411790    -0.02480
C330        C  0.16367951  0.32996922  0.27735232    -0.06930
C331        C  0.18972676  0.32608803  0.30253283     0.06600
C332        C  0.21458478  0.32198996  0.27376056    -0.01950
Br333      Br  0.25153752  0.31955311  0.30442338    -0.01650
H334        H  0.23253002  0.31885274  0.19949623     0.10510
H335        H  0.14449112  0.33353041  0.29920417     0.08530
Br336      Br  0.12565791  0.33658251  0.19351575    -0.02080
C337        C  0.28259754  0.47659785  0.49438280    -0.08710
C338        C  0.26630017  0.00550269  0.48952986     0.07490
C339        C  0.23674590  0.00355436  0.48403597    -0.02480
C340        C  0.22366612  0.47237272  0.48414441    -0.06930
C341        C  0.23985797  0.44346265  0.49101680     0.06600
C342        C  0.26949884  0.44549737  0.49569799    -0.01950
Br343      Br  0.29300227  0.40675987  0.50295496    -0.01650
H344        H  0.30541493  0.47833166  0.49856392     0.10510
H345        H  0.20082659  0.47072047  0.48040129     0.08530
Br346      Br  0.21364255  0.04264254  0.47623608    -0.02080
C347        C  0.32166448  0.09228130  0.77549835    -0.08710
C348        C  0.31774202  0.12251317  0.80201728     0.07490
C349        C  0.31594259  0.15267667  0.77396152    -0.02480
C350        C  0.31772787  0.15187472  0.72081891    -0.06930
C351        C  0.32074349  0.12149417  0.69483046     0.06600
C352        C  0.32283426  0.09156628  0.72249105    -0.01950
Br353      Br  0.32733968  0.04908481  0.68933957    -0.01650
H354        H  0.32305855  0.06883843  0.79595911     0.10510
H355        H  0.31587709  0.17497865  0.69957465     0.08530
Br356      Br  0.31144077  0.19584474  0.80513113    -0.02080
C357        C  0.29221733  0.12412923  0.22127022    -0.08710
C358        C  0.31835936  0.12347281  0.19565999     0.07490
C359        C  0.34360644  0.12241450  0.22469591    -0.02480
C360        C  0.34214940  0.12163751  0.27795220    -0.06930
C361        C  0.31594035  0.12241062  0.30301450     0.06600
C362        C  0.29083327  0.12359253  0.27418124    -0.01950
Br363      Br  0.25394757  0.12180848  0.30489832    -0.01650
H364        H  0.27253646  0.12472911  0.19999844     0.10510
H365        H  0.36156615  0.12040909  0.29992321     0.08530
Br366      Br  0.38053542  0.12000990  0.19450459    -0.02080
C367        C  0.22300105  0.47238451  0.99274933    -0.08710
C368        C  0.23954670  0.44347516  0.99402181     0.07490
C369        C  0.26925758  0.44549202  0.99331842    -0.02480
C370        C  0.28218742  0.47669741  0.99227159    -0.06930
C371        C  0.26564026  0.00561140  0.99295309     0.06600
C372        C  0.23593183  0.00358878  0.99276575    -0.01950
Br373      Br  0.21230700  0.04251463  0.99146237    -0.01650
H374        H  0.20007350  0.47064238  0.99289430     0.10510
H375        H  0.30511452  0.47845224  0.99216003     0.08530
Br376      Br  0.29288382  0.40657470  0.99249561    -0.02080
C377        C  0.34937391  0.80186926  0.00807511     0.03570
C378        C  0.35328285  0.76647650  0.00602160    -0.12580
C379        C  0.32974890  0.74474650  0.00404109     0.01070
C380        C  0.30253212  0.75880307  0.00396997    -0.11100
C381        C  0.29826597  0.79316962  0.00630397     0.03570
C382        C  0.32166697  0.81479748  0.00989350    -0.10520
H383        H  0.37439200  0.75605241  0.00435186     0.09160
H384        H  0.28399744  0.74269810  0.00248186     0.06690
H385        H  0.31837495  0.84151852  0.01107164     0.06540
C386        C  0.34984766  0.80176734  0.51000903     0.03570
C387        C  0.35371346  0.76638712  0.50726104    -0.12580
C388        C  0.33015001  0.74473021  0.50476119     0.01070
C389        C  0.30295558  0.75883693  0.50512074    -0.11100
C390        C  0.29872545  0.79320935  0.50832322     0.03570
C391        C  0.32217128  0.81474852  0.51218926    -0.10520
H392        H  0.37481900  0.75593570  0.50544788     0.09280
H393        H  0.28441234  0.74276341  0.50326847     0.06690
H394        H  0.31894308  0.84147976  0.51366415     0.06540
Zn395      Zn  0.29392580  0.65123709  0.95626023     1.49720
Zn396      Zn  0.34574023  0.63718553  0.03621926     1.49360
Zn397      Zn  0.28352637  0.60309302  0.04692240     1.49110
Zn398      Zn  0.32318370  0.58334196  0.95553355     1.49480
O399        O  0.31208935  0.61935071  0.99973327    -1.83680
O400        O  0.31040907  0.69455604  0.97460573    -0.74310
O401        O  0.33817524  0.63400588  0.11290924    -0.74130
O402        O  0.24523242  0.62418101  0.03904026    -0.73650
O403        O  0.34962634  0.68920404  0.02118179    -0.74330
O404        O  0.25186537  0.65489007  0.96996156    -0.73930
O405        O  0.29604003  0.60940701  0.11818984    -0.74510
O406        O  0.29588339  0.54622085  0.95974188    -0.73900
O407        O  0.38024869  0.60452166  0.02354349    -0.74660
O408        O  0.27553420  0.55563491  0.03465793    -0.74050
O409        O  0.35943373  0.56400620  0.97866075    -0.74510
O410        O  0.32600266  0.59687147  0.88219230    -0.74420
O411        O  0.30093642  0.64354638  0.88156227    -0.74210
C412        C  0.33099013  0.70754691  0.99893028     0.77580
C413        C  0.31779989  0.62217941  0.13926732     0.78070
C414        C  0.23586449  0.64369740  0.00502890     0.77030
C415        C  0.27973549  0.53755515  0.99582220     0.77400
C416        C  0.38046942  0.57499544  0.00378612     0.78540
C417        C  0.31494701  0.62119810  0.85816779     0.77590
Zn418      Zn  0.29424889  0.65096052  0.45739207     1.49720
Zn419      Zn  0.34623214  0.63730682  0.53630481     1.49360
Zn420      Zn  0.28433577  0.60211472  0.54747498     1.49110
Zn421      Zn  0.32438558  0.58359151  0.45537021     1.49480
O422        O  0.31271109  0.61909868  0.50023228    -1.83680
O423        O  0.31073724  0.69455691  0.47503133    -0.74310
O424        O  0.33839453  0.63456926  0.61260578    -0.74130
O425        O  0.24602816  0.62371778  0.54108513    -0.73650
O426        O  0.35011756  0.68920438  0.52114379    -0.74330
O427        O  0.25241184  0.65452543  0.47203012    -0.73930
O428        O  0.29755754  0.60670663  0.61898475    -0.74510
O429        O  0.29687092  0.54643271  0.45802953    -0.73900
O430        O  0.38083164  0.60448727  0.52463546    -0.74660
O431        O  0.27593396  0.55501171  0.53270965    -0.74050
O432        O  0.36031539  0.56393283  0.47942872    -0.74510
O433        O  0.32789948  0.59773748  0.38212302    -0.74420
O434        O  0.30014053  0.64247035  0.38277455    -0.74210
C435        C  0.33138996  0.70755145  0.49919798     0.77580
C436        C  0.31892726  0.62095089  0.63912752     0.78070
C437        C  0.23655158  0.64333824  0.50726215     0.77030
C438        C  0.28037570  0.53742107  0.49343549     0.77400
C439        C  0.38116333  0.57489934  0.50506824     0.78540
C440        C  0.31484718  0.62096705  0.35889060     0.77590
C441        C  0.15537448  0.64713071  0.00942574     0.03570
C442        C  0.18307412  0.63418397  0.01142414    -0.12580
C443        C  0.20648017  0.65578296  0.00793118     0.01070
C444        C  0.20221195  0.69016229  0.00553784    -0.11100
C445        C  0.17499157  0.70422729  0.00533231     0.03570
C446        C  0.15145755  0.68251569  0.00727960    -0.10520
H447        H  0.18635339  0.60744109  0.01253573     0.09160
H448        H  0.22073903  0.70626693  0.00400142     0.06690
H449        H  0.13034149  0.69293134  0.00546264     0.06540
C450        C  0.15607370  0.64663521  0.51040941     0.03570
C451        C  0.18378077  0.63375495  0.51326893    -0.12580
C452        C  0.20716754  0.65542213  0.51019626     0.01070
C453        C  0.20286529  0.68980637  0.50720309    -0.11100
C454        C  0.17563748  0.70381917  0.50608794     0.03570
C455        C  0.15213480  0.68202752  0.50771249    -0.10520
H456        H  0.18713006  0.60699132  0.51458240     0.09160
H457        H  0.22136651  0.70595632  0.50577710     0.06690
H458        H  0.13102967  0.69238325  0.50511722     0.06540
Zn459      Zn  0.21036394  0.79744763  0.95608674     1.49720
Zn460      Zn  0.22162310  0.84577464  0.04686772     1.49360
Zn461      Zn  0.18168653  0.86603901  0.95595013     1.49110
Zn462      Zn  0.15914629  0.81206770  0.03609397     1.49480
O463        O  0.19272615  0.82974005  0.99963273    -1.83680
O464        O  0.25259337  0.79399051  0.96897075    -0.74310
O465        O  0.22991020  0.89328145  0.03539389    -0.74130
O466        O  0.17961656  0.85330593  0.88227039    -0.73650
O467        O  0.25973846  0.82461426  0.03821225    -0.74330
O468        O  0.20283074  0.80502343  0.88152168    -0.73930
O469        O  0.20887619  0.90312336  0.96114541    -0.74510
O470        O  0.12465480  0.84473654  0.02349355    -0.73900
O471        O  0.20949128  0.83918464  0.11814934    -0.74660
O472        O  0.14533733  0.88520164  0.97869226    -0.74050
O473        O  0.16692431  0.81552256  0.11261492    -0.74510
O474        O  0.15516388  0.75992513  0.02166544    -0.74420
O475        O  0.19417422  0.75416474  0.97501251    -0.74210
C476        C  0.26885739  0.80519257  0.00386149     0.77580
C477        C  0.22540603  0.91155995  0.99694435     0.78070
C478        C  0.19005299  0.82854081  0.85850046     0.77030
C479        C  0.12437771  0.87423589  0.00380346     0.77400
C480        C  0.18756751  0.82686040  0.13901917     0.78540
C481        C  0.17371701  0.74138292  0.99965118     0.77590
Zn482      Zn  0.22174143  0.84633215  0.54669388     1.49720
Zn483      Zn  0.21117762  0.79728172  0.45697583     1.49360
Zn484      Zn  0.15949870  0.81184104  0.53593467     1.49110
Zn485      Zn  0.18173555  0.86534172  0.45498848     1.49480
O486        O  0.19307425  0.82959331  0.49963139    -1.83680
O487        O  0.26015306  0.82529753  0.53917949    -0.74310
O488        O  0.19480928  0.75374563  0.47526331    -0.74130
O489        O  0.16713165  0.81576905  0.61245266    -0.73650
O490        O  0.25313359  0.79372920  0.47095622    -0.74330
O491        O  0.20925139  0.84028849  0.61793937    -0.73930
O492        O  0.15579583  0.75958417  0.52193333    -0.74510
O493        O  0.14562943  0.88479829  0.47807311    -0.73900
O494        O  0.20491234  0.80546958  0.38243663    -0.74660
O495        O  0.12486735  0.84433616  0.52274821    -0.74050
O496        O  0.17863712  0.85142867  0.38156210    -0.74510
O497        O  0.20914981  0.90259211  0.45879762    -0.74420
O498        O  0.22961336  0.89387577  0.53390871    -0.74210
C499        C  0.26933305  0.80533192  0.50557822     0.77580
C500        C  0.17433823  0.74099021  0.49996537     0.78070
C501        C  0.18750104  0.82762865  0.63898926     0.77030
C502        C  0.12461867  0.87383445  0.50302011     0.77400
C503        C  0.19094088  0.82759209  0.35842821     0.78540
C504        C  0.22544355  0.91160851  0.49470674     0.77590
C505        C  0.40529680  0.55218786  0.00856538     0.03570
C506        C  0.43303577  0.56529991  0.01015886    -0.12580
C507        C  0.45639967  0.54374397  0.00660254     0.01070
C508        C  0.45208856  0.50933438  0.00425114    -0.11100
C509        C  0.42488396  0.99509859  0.00417181     0.03570
C510        C  0.40134644  0.51672839  0.00636181    -0.10520
H511        H  0.43641602  0.59212541  0.01103116     0.09160
H512        H  0.47061149  0.99332092  0.00278391     0.06690
H513        H  0.38019533  0.50618807  0.00475120     0.06540
C514        C  0.40590660  0.55199964  0.51063670     0.03570
C515        C  0.40191259  0.51654291  0.50823952    -0.12580
C516        C  0.42542436  0.99483664  0.50653137     0.01070
C517        C  0.45265609  0.50898531  0.50738202    -0.11100
C518        C  0.45701524  0.54340529  0.50999112     0.03570
C519        C  0.43366200  0.56502411  0.51295376    -0.10520
H520        H  0.38075731  0.50606637  0.50594345     0.09160
H521        H  0.47113327  0.99289234  0.50600249     0.06690
H522        H  0.43708854  0.59184276  0.51373443     0.06540
Zn523      Zn  0.47121161  0.85315315  0.04753690     1.49720
Zn524      Zn  0.46082148  0.90152009  0.95703592     1.49360
Zn525      Zn  0.43141251  0.83336656  0.95532649     1.49110
Zn526      Zn  0.40886161  0.88717788  0.03527119     1.49480
O527        O  0.44264600  0.86937507  0.99984670    -1.83680
O528        O  0.00989690  0.87339618  0.03869974    -0.74310
O529        O  0.45446436  0.89327272  0.88253707    -0.74130
O530        O  0.45870465  0.79618007  0.96021818    -0.73650
O531        O  0.50276484  0.90525124  0.97101662    -0.74330
O532        O  0.47815778  0.80518932  0.03632356    -0.73930
O533        O  0.42833097  0.84707955  0.88172768    -0.74510
O534        O  0.37433658  0.85446046  0.02241147    -0.73900
O535        O  0.44432999  0.94496199  0.97485562    -0.74660
O536        O  0.39521965  0.81382580  0.97837123    -0.74050
O537        O  0.40501508  0.93930512  0.02069651    -0.74510
O538        O  0.41624776  0.88381522  0.11166981    -0.74420
O539        O  0.45916648  0.86103570  0.11895677    -0.74210
C540        C  0.01904502  0.89344038  0.00522044     0.77580
C541        C  0.44023504  0.87122238  0.85857999     0.78070
C542        C  0.47413005  0.78715461  0.99725733     0.77030
C543        C  0.37416504  0.82481221  0.00312660     0.77400
C544        C  0.42368778  0.95783159  0.99887485     0.78540
C545        C  0.43690952  0.87330035  0.13860285     0.77590
Zn546      Zn  0.43168192  0.83270718  0.45576207     1.49720
Zn547      Zn  0.40985779  0.88675634  0.53712590     1.49360
Zn548      Zn  0.47200016  0.85238880  0.54602772     1.49110
Zn549      Zn  0.46051617  0.90134477  0.45599769     1.49480
O550        O  0.44303994  0.86896454  0.49964822    -1.83680
O551        O  0.39535969  0.81382557  0.47909807    -0.74310
O552        O  0.41840476  0.88362778  0.61352024    -0.74130
O553        O  0.47916974  0.80460392  0.53485562    -0.73650
O554        O  0.37519465  0.85401325  0.52523257    -0.74330
O555        O  0.45847791  0.79514745  0.46015971    -0.73930
O556        O  0.46076945  0.85957915  0.61761501    -0.74510
O557        O  0.50274364  0.90475540  0.46852777    -0.73900
O558        O  0.40580485  0.93891492  0.52279741    -0.74660
O559        O  0.01034747  0.87296983  0.53620968    -0.74050
O560        O  0.44448408  0.94493182  0.47528860    -0.74510
O561        O  0.45273069  0.89339245  0.38138255    -0.74420
O562        O  0.42892323  0.84578234  0.38230944    -0.74210
C563        C  0.37465989  0.82464056  0.50496908     0.77580
C564        C  0.43940949  0.87257104  0.63916768     0.78070
C565        C  0.47448087  0.78626025  0.49641051     0.77030
C566        C  0.01924996  0.89297211  0.50247106     0.77400
C567        C  0.42416516  0.95761087  0.50044724     0.78540
C568        C  0.43929454  0.87033374  0.35799415     0.77590
C569        C  0.09958947  0.89706399  0.00881277     0.03570
C570        C  0.07186706  0.88395951  0.01085142    -0.12580
C571        C  0.04848812  0.90552127  0.00780328     0.01070
C572        C  0.05278094  0.93993260  0.00544746    -0.11100
C573        C  0.07997603  0.95415144  0.00489179     0.03570
C574        C  0.10352870  0.93252113  0.00661594    -0.10520
H575        H  0.06848598  0.85713551  0.01166377     0.09160
H576        H  0.03426255  0.95596834  0.00423725     0.06690
H577        H  0.12466511  0.94305758  0.00464542     0.06540
C578        C  0.09978268  0.89663857  0.50750401     0.03570
C579        C  0.07205186  0.88352976  0.50876581    -0.12580
C580        C  0.04869510  0.90506352  0.50470722     0.01070
C581        C  0.05299559  0.93945681  0.50210269    -0.11100
C582        C  0.08019000  0.95370379  0.50257503     0.03570
C583        C  0.10372590  0.93209238  0.50529499    -0.10520
H584        H  0.06867359  0.85670990  0.50984009     0.09160
H585        H  0.03446875  0.95545234  0.50032864     0.06690
H586        H  0.12487849  0.94264033  0.50413660     0.06540
Zn587      Zn  0.09568383  0.56211910  0.03619850     1.49720
Zn588      Zn  0.07327896  0.61597821  0.95537670     1.49360
Zn589      Zn  0.04415085  0.54752564  0.95629536     1.49110
Zn590      Zn  0.03357634  0.59645793  0.04655362     1.49480
O591        O  0.06213530  0.57990416  0.99953640    -1.83680
O592        O  0.13022788  0.59478627  0.02402398    -0.74310
O593        O  0.07584826  0.60227768  0.88190733    -0.74130
O594        O  0.06052754  0.50411425  0.97493432    -0.73650
O595        O  0.10970830  0.63504443  0.97859786    -0.74330
O596        O  0.09970359  0.51002339  0.02150537    -0.73930
O597        O  0.05122324  0.55514311  0.88161598    -0.74510
O598        O  0.49504431  0.57589193  0.03758018    -0.73900
O599        O  0.04643455  0.65359946  0.96012469    -0.74660
O600        O  0.00206449  0.54400748  0.96972327    -0.74050
O601        O  0.02642811  0.64425606  0.03528604    -0.74510
O602        O  0.04563161  0.58947921  0.11796512    -0.74420
O603        O  0.08797943  0.56549065  0.11269661    -0.74210
C604        C  0.13058171  0.62421894  0.00415529     0.77580
C605        C  0.06497202  0.57765064  0.85801290     0.78070
C606        C  0.08112539  0.49138450  0.99938948     0.77030
C607        C  0.48584368  0.55582991  0.00397910     0.77400
C608        C  0.03079877  0.66255720  0.99679245     0.78540
C609        C  0.06744775  0.57695494  0.13896159     0.77590
Zn610      Zn  0.09623982  0.56126714  0.53580138     1.49720
Zn611      Zn  0.03452930  0.59662927  0.54747190     1.49360
Zn612      Zn  0.07434201  0.61530413  0.45524251     1.49110
Zn613      Zn  0.04416310  0.54764027  0.45707441     1.49480
O614        O  0.06273364  0.57961662  0.49993280    -1.83680
O615        O  0.08849813  0.56391447  0.61218872    -0.74310
O616        O  0.02683817  0.64400009  0.53403534    -0.74130
O617        O  0.11056657  0.63451148  0.47888818    -0.73650
O618        O  0.04765519  0.59151488  0.61889498    -0.74330
O619        O  0.13087419  0.59415453  0.52437979    -0.73930
O620        O  0.04742369  0.65291445  0.45917541    -0.74510
O621        O  0.04993020  0.55616764  0.38248222    -0.73900
O622        O  0.49596153  0.57543007  0.54053448    -0.74660
O623        O  0.07717116  0.60145784  0.38169325    -0.74050
O624        O  0.00232880  0.54399431  0.47199395    -0.74510
O625        O  0.06070872  0.50404255  0.47407623    -0.74420
O626        O  0.10013667  0.50934415  0.52007053    -0.74210
C627        C  0.06902952  0.57735312  0.63886384     0.77580
C628        C  0.03140551  0.66194869  0.49525979     0.78070
C629        C  0.13132433  0.62365429  0.50468780     0.77030
C630        C  0.06426852  0.57797567  0.35846285     0.77400
C631        C  0.48644979  0.55551738  0.50695377     0.78540
C632        C  0.08139840  0.49098848  0.49786937     0.77590
C633        C  0.06659091  0.54665606  0.72046219    -0.08710
C634        C  0.07087582  0.57679390  0.69454964     0.07490
C635        C  0.07412212  0.60662824  0.72225564    -0.02480
C636        C  0.07286895  0.60606524  0.77526974    -0.06930
C637        C  0.06773878  0.57609869  0.80178499     0.06600
C638        C  0.06474799  0.54600610  0.77359856    -0.01950
Br639      Br  0.05836210  0.50307467  0.80435926    -0.01650
H640        H  0.06379557  0.52364947  0.69914286     0.10510
H641        H  0.07517291  0.62947066  0.79571636     0.08530
Br642      Br  0.08021735  0.64878679  0.68909578    -0.02080
C643        C  0.09134093  0.58097417  0.27740851    -0.08710
C644        C  0.06538624  0.57639910  0.30249581     0.07490
C645        C  0.04058579  0.57143239  0.27352606    -0.02480
C646        C  0.04207987  0.57102027  0.22059434    -0.06930
C647        C  0.06797854  0.57547112  0.19518840     0.06600
C648        C  0.09288039  0.58033790  0.22418343    -0.01950
Br649      Br  0.12912845  0.58858676  0.19366687    -0.01650
H650        H  0.11049290  0.58517020  0.29932524     0.10510
H651        H  0.02267556  0.56758206  0.19907906     0.08530
Br652      Br  0.50366734  0.56791337  0.30378215    -0.02080
C653        C  0.01823283  0.75389758  0.49823866    -0.08710
C654        C  0.48868552  0.75434564  0.49348836     0.07490
C655        C  0.47334239  0.72444103  0.48749985    -0.02480
C656        C  0.48783298  0.69422666  0.48739263    -0.06930
C657        C  0.01735316  0.69385212  0.49219520     0.06600
C658        C  0.03273171  0.72373154  0.49717753    -0.01950
Br659      Br  0.07312325  0.72434614  0.50552225    -0.01650
H660        H  0.02997979  0.77705031  0.50294595     0.10510
H661        H  0.47608814  0.67096981  0.48411721     0.08530
Br662      Br  0.43274686  0.72344217  0.48290846    -0.02080
C663        C  0.46396907  0.87980150  0.77618644    -0.08710
C664        C  0.43888263  0.87304161  0.80264657     0.07490
C665        C  0.41358044  0.86780836  0.77512108    -0.02480
C666        C  0.41389816  0.86884234  0.72186574    -0.06930
C667        C  0.43926884  0.87440454  0.69531803     0.06600
C668        C  0.46447571  0.88026509  0.72317685    -0.01950
Br669      Br  0.00026999  0.89014660  0.69168802    -0.01650
H670        H  0.48351683  0.88410155  0.79693214     0.10510
H671        H  0.39436873  0.86449034  0.70113355     0.08530
Br672      Br  0.37794315  0.86050398  0.80830133    -0.02080
C673        C  0.41793402  0.85235991  0.22008050    -0.08710
C674        C  0.43533879  0.87495909  0.19422930     0.07490
C675        C  0.45308469  0.89656887  0.22195123    -0.02480
C676        C  0.45336205  0.89521270  0.27500769    -0.06930
C677        C  0.43654536  0.87193399  0.30160606     0.06600
C678        C  0.41848713  0.85035842  0.27320404    -0.01950
Br679      Br  0.39418577  0.81711162  0.30302438    -0.01650
H680        H  0.40450269  0.83536992  0.19867600     0.10510
H681        H  0.46743452  0.91200045  0.29537141     0.08530
Br682      Br  0.47745162  0.92820410  0.18874291    -0.02080
C683        C  0.48711621  0.69506823  0.99843122    -0.08710
C684        C  0.01668123  0.69455543  0.99444046     0.07490
C685        C  0.03213895  0.72447638  0.99011979    -0.02480
C686        C  0.01774250  0.75476241  0.99082675    -0.06930
C687        C  0.48819283  0.75520451  0.99473968     0.06600
C688        C  0.47270830  0.72531239  0.99808011    -0.01950
Br689      Br  0.43224962  0.72473033  0.00476289    -0.01650
H690        H  0.47528263  0.67190085  0.00191132     0.10510
H691        H  0.02956844  0.77800318  0.98859288     0.08530
Br692      Br  0.07274033  0.72531349  0.98641972    -0.02080
C693        C  0.16987178  0.80681337  0.77747063    -0.08710
C694        C  0.18874596  0.82820728  0.80284293     0.07490
C695        C  0.20659310  0.84923649  0.77471758    -0.02480
C696        C  0.20540799  0.84875235  0.72180907    -0.06930
C697        C  0.18655443  0.82742882  0.69552767     0.06600
C698        C  0.16849067  0.80629251  0.72418644    -0.01950
Br699      Br  0.14229119  0.77522327  0.69394728    -0.01650
H700        H  0.15617172  0.79045370  0.79921484     0.10510
H701        H  0.21953307  0.86523714  0.70120533     0.08530
Br702      Br  0.23377033  0.87818042  0.80706358    -0.02080
C703        C  0.21307086  0.82167237  0.22083807    -0.08710
C704        C  0.18707697  0.82540548  0.19525619     0.07490
C705        C  0.16210663  0.82943589  0.22411790    -0.02480
C706        C  0.16367951  0.82996922  0.27735232    -0.06930
C707        C  0.18972675  0.82608803  0.30253283     0.06600
C708        C  0.21458477  0.82198996  0.27376056    -0.01950
Br709      Br  0.25153751  0.81955312  0.30442338    -0.01650
H710        H  0.23253002  0.81885274  0.19949624     0.10510
H711        H  0.14449112  0.83353041  0.29920416     0.08530
Br712      Br  0.12565790  0.83658251  0.19351574    -0.02080
C713        C  0.28259754  0.97659785  0.49438278    -0.08710
C714        C  0.26630016  0.50550269  0.48952988     0.07490
C715        C  0.23674590  0.50355436  0.48403599    -0.02480
C716        C  0.22366612  0.97237272  0.48414440    -0.06930
C717        C  0.23985797  0.94346265  0.49101679     0.06600
C718        C  0.26949884  0.94549737  0.49569797    -0.01950
Br719      Br  0.29300227  0.90675987  0.50295494    -0.01650
H720        H  0.30541493  0.97833166  0.49856389     0.10510
H721        H  0.20082660  0.97072047  0.48040127     0.08530
Br722      Br  0.21364255  0.54264254  0.47623610    -0.02080
C723        C  0.32166448  0.59228131  0.77549835    -0.08710
C724        C  0.31774202  0.62251317  0.80201728     0.07490
C725        C  0.31594260  0.65267667  0.77396153    -0.02480
C726        C  0.31772787  0.65187472  0.72081891    -0.06930
C727        C  0.32074349  0.62149417  0.69483046     0.06600
C728        C  0.32283426  0.59156629  0.72249105    -0.01950
Br729      Br  0.32733967  0.54908482  0.68933956    -0.01650
H730        H  0.32305855  0.56883843  0.79595910     0.10510
H731        H  0.31587710  0.67497866  0.69957465     0.08530
Br732      Br  0.31144078  0.69584474  0.80513114    -0.02080
C733        C  0.29221733  0.62412926  0.22127021    -0.08710
C734        C  0.31835936  0.62347281  0.19565999     0.07490
C735        C  0.34360643  0.62241445  0.22469591    -0.02480
C736        C  0.34214940  0.62163746  0.27795219    -0.06930
C737        C  0.31594035  0.62241061  0.30301450     0.06600
C738        C  0.29083327  0.62359256  0.27418123    -0.01950
Br739      Br  0.25394756  0.62180856  0.30489831    -0.01650
H740        H  0.27253646  0.62472917  0.19999844     0.10510
H741        H  0.36156614  0.62040901  0.29992320     0.08530
Br742      Br  0.38053541  0.62000979  0.19450458    -0.02080
C743        C  0.22300105  0.97238451  0.99274934    -0.08710
C744        C  0.23954670  0.94347516  0.99402182     0.07490
C745        C  0.26925758  0.94549202  0.99331843    -0.02480
C746        C  0.28218742  0.97669741  0.99227160    -0.06930
C747        C  0.26564025  0.50561140  0.99295308     0.06600
C748        C  0.23593183  0.50358878  0.99276574    -0.01950
Br749      Br  0.21230700  0.54251463  0.99146236    -0.01650
H750        H  0.20007350  0.97064238  0.99289431     0.10510
H751        H  0.30511452  0.97845224  0.99216005     0.08530
Br752      Br  0.29288382  0.90657470  0.99249562    -0.02080
C753        C  0.84937391  0.30186926  0.00807511     0.03570
C754        C  0.85328285  0.26647650  0.00602159    -0.12580
C755        C  0.82974890  0.24474650  0.00404108     0.01070
C756        C  0.80253212  0.25880307  0.00396996    -0.11100
C757        C  0.79826597  0.29316962  0.00630396     0.03570
C758        C  0.82166697  0.31479748  0.00989350    -0.10520
H759        H  0.87439200  0.25605241  0.00435185     0.09160
H760        H  0.78399744  0.24269810  0.00248185     0.06690
H761        H  0.81837495  0.34151852  0.01107164     0.06540
C762        C  0.84984767  0.30176734  0.51000904     0.03570
C763        C  0.85371346  0.26638712  0.50726104    -0.12580
C764        C  0.83015001  0.24473021  0.50476119     0.01070
C765        C  0.80295558  0.25883693  0.50512074    -0.11100
C766        C  0.79872545  0.29320935  0.50832322     0.03570
C767        C  0.82217128  0.31474852  0.51218926    -0.10520
H768        H  0.87481900  0.25593570  0.50544788     0.09280
H769        H  0.78441235  0.24276341  0.50326847     0.06690
H770        H  0.81894308  0.34147976  0.51366416     0.06540
Zn771      Zn  0.79392580  0.15123709  0.95626023     1.49720
Zn772      Zn  0.84574023  0.13718553  0.03621926     1.49360
Zn773      Zn  0.78352637  0.10309302  0.04692240     1.49110
Zn774      Zn  0.82318370  0.08334196  0.95553355     1.49480
O775        O  0.81208935  0.11935071  0.99973327    -1.83680
O776        O  0.81040907  0.19455604  0.97460573    -0.74310
O777        O  0.83817524  0.13400588  0.11290924    -0.74130
O778        O  0.74523242  0.12418101  0.03904026    -0.73650
O779        O  0.84962634  0.18920404  0.02118178    -0.74330
O780        O  0.75186537  0.15489007  0.96996156    -0.73930
O781        O  0.79604003  0.10940701  0.11818985    -0.74510
O782        O  0.79588339  0.04622085  0.95974189    -0.73900
O783        O  0.88024869  0.10452167  0.02354349    -0.74660
O784        O  0.77553420  0.05563491  0.03465794    -0.74050
O785        O  0.85943373  0.06400621  0.97866075    -0.74510
O786        O  0.82600266  0.09687147  0.88219230    -0.74420
O787        O  0.80093642  0.14354638  0.88156227    -0.74210
C788        C  0.83099013  0.20754692  0.99893028     0.77580
C789        C  0.81779989  0.12217941  0.13926732     0.78070
C790        C  0.73586449  0.14369740  0.00502891     0.77030
C791        C  0.77973549  0.03755515  0.99582221     0.77400
C792        C  0.88046942  0.07499544  0.00378612     0.78540
C793        C  0.81494700  0.12119810  0.85816779     0.77590
Zn794      Zn  0.79424889  0.15096052  0.45739207     1.49720
Zn795      Zn  0.84623214  0.13730682  0.53630481     1.49360
Zn796      Zn  0.78433577  0.10211472  0.54747497     1.49110
Zn797      Zn  0.82438558  0.08359151  0.45537021     1.49480
O798        O  0.81271110  0.11909868  0.50023228    -1.83680
O799        O  0.81073725  0.19455691  0.47503133    -0.74310
O800        O  0.83839453  0.13456926  0.61260578    -0.74130
O801        O  0.74602816  0.12371777  0.54108513    -0.73650
O802        O  0.85011756  0.18920438  0.52114379    -0.74330
O803        O  0.75241184  0.15452543  0.47203012    -0.73930
O804        O  0.79755755  0.10670663  0.61898474    -0.74510
O805        O  0.79687092  0.04643271  0.45802952    -0.73900
O806        O  0.88083164  0.10448727  0.52463546    -0.74660
O807        O  0.77593396  0.05501171  0.53270964    -0.74050
O808        O  0.86031539  0.06393283  0.47942872    -0.74510
O809        O  0.82789948  0.09773748  0.38212301    -0.74420
O810        O  0.80014053  0.14247036  0.38277455    -0.74210
C811        C  0.83138996  0.20755145  0.49919798     0.77580
C812        C  0.81892726  0.12095088  0.63912752     0.78070
C813        C  0.73655158  0.14333824  0.50726215     0.77030
C814        C  0.78037570  0.03742107  0.49343548     0.77400
C815        C  0.88116333  0.07489934  0.50506825     0.78540
C816        C  0.81484719  0.12096705  0.35889060     0.77590
C817        C  0.65537448  0.14713071  0.00942574     0.03570
C818        C  0.68307412  0.13418397  0.01142414    -0.12580
C819        C  0.70648017  0.15578296  0.00793118     0.01070
C820        C  0.70221195  0.19016229  0.00553785    -0.11100
C821        C  0.67499157  0.20422729  0.00533232     0.03570
C822        C  0.65145755  0.18251569  0.00727961    -0.10520
H823        H  0.68635339  0.10744109  0.01253573     0.09160
H824        H  0.72073903  0.20626693  0.00400143     0.06690
H825        H  0.63034149  0.19293134  0.00546264     0.06540
C826        C  0.65607370  0.14663521  0.51040941     0.03570
C827        C  0.68378077  0.13375494  0.51326893    -0.12580
C828        C  0.70716754  0.15542213  0.51019626     0.01070
C829        C  0.70286529  0.18980637  0.50720309    -0.11100
C830        C  0.67563748  0.20381917  0.50608794     0.03570
C831        C  0.65213480  0.18202752  0.50771248    -0.10520
H832        H  0.68713006  0.10699132  0.51458240     0.09160
H833        H  0.72136651  0.20595632  0.50577710     0.06690
H834        H  0.63102967  0.19238325  0.50511722     0.06540
Zn835      Zn  0.71036394  0.29744762  0.95608674     1.49720
Zn836      Zn  0.72162310  0.34577464  0.04686771     1.49360
Zn837      Zn  0.68168653  0.36603901  0.95595013     1.49110
Zn838      Zn  0.65914629  0.31206770  0.03609397     1.49480
O839        O  0.69272615  0.32974005  0.99963273    -1.83680
O840        O  0.75259337  0.29399051  0.96897075    -0.74310
O841        O  0.72991020  0.39328145  0.03539388    -0.74130
O842        O  0.67961656  0.35330592  0.88227039    -0.73650
O843        O  0.75973846  0.32461426  0.03821224    -0.74330
O844        O  0.70283074  0.30502343  0.88152168    -0.73930
O845        O  0.70887619  0.40312336  0.96114539    -0.74510
O846        O  0.62465480  0.34473654  0.02349355    -0.73900
O847        O  0.70949128  0.33918464  0.11814933    -0.74660
O848        O  0.64533733  0.38520164  0.97869226    -0.74050
O849        O  0.66692431  0.31552256  0.11261492    -0.74510
O850        O  0.65516388  0.25992513  0.02166544    -0.74420
O851        O  0.69417422  0.25416474  0.97501251    -0.74210
C852        C  0.76885739  0.30519257  0.00386148     0.77580
C853        C  0.72540602  0.41155995  0.99694434     0.78070
C854        C  0.69005298  0.32854080  0.85850046     0.77030
C855        C  0.62437771  0.37423588  0.00380346     0.77400
C856        C  0.68756751  0.32686041  0.13901917     0.78540
C857        C  0.67371701  0.24138292  0.99965119     0.77590
Zn858      Zn  0.72174143  0.34633214  0.54669389     1.49720
Zn859      Zn  0.71117762  0.29728171  0.45697583     1.49360
Zn860      Zn  0.65949870  0.31184104  0.53593467     1.49110
Zn861      Zn  0.68173556  0.36534172  0.45498848     1.49480
O862        O  0.69307425  0.32959331  0.49963139    -1.83680
O863        O  0.76015306  0.32529753  0.53917949    -0.74310
O864        O  0.69480929  0.25374562  0.47526331    -0.74130
O865        O  0.66713165  0.31576905  0.61245266    -0.73650
O866        O  0.75313360  0.29372920  0.47095622    -0.74330
O867        O  0.70925139  0.34028848  0.61793937    -0.73930
O868        O  0.65579583  0.25958417  0.52193332    -0.74510
O869        O  0.64562944  0.38479829  0.47807311    -0.73900
O870        O  0.70491234  0.30546958  0.38243663    -0.74660
O871        O  0.62486735  0.34433615  0.52274821    -0.74050
O872        O  0.67863713  0.35142867  0.38156210    -0.74510
O873        O  0.70914981  0.40259211  0.45879763    -0.74420
O874        O  0.72961336  0.39387576  0.53390872    -0.74210
C875        C  0.76933305  0.30533192  0.50557822     0.77580
C876        C  0.67433823  0.24099021  0.49996537     0.78070
C877        C  0.68750104  0.32762864  0.63898926     0.77030
C878        C  0.62461868  0.37383445  0.50302011     0.77400
C879        C  0.69094089  0.32759209  0.35842821     0.78540
C880        C  0.72544355  0.41160851  0.49470675     0.77590
C881        C  0.90529680  0.05218786  0.00856537     0.03570
C882        C  0.93303577  0.06529991  0.01015885    -0.12580
C883        C  0.95639967  0.04374397  0.00660254     0.01070
C884        C  0.95208856  0.00933438  0.00425114    -0.11100
C885        C  0.92488396  0.49509859  0.00417180     0.03570
C886        C  0.90134644  0.01672839  0.00636181    -0.10520
H887        H  0.93641602  0.09212541  0.01103116     0.09160
H888        H  0.97061149  0.49332092  0.00278390     0.06690
H889        H  0.88019533  0.00618807  0.00475120     0.06540
C890        C  0.90590661  0.05199964  0.51063670     0.03570
C891        C  0.90191259  0.01654291  0.50823952    -0.12580
C892        C  0.92542436  0.49483664  0.50653137     0.01070
C893        C  0.95265609  0.00898531  0.50738202    -0.11100
C894        C  0.95701524  0.04340529  0.50999112     0.03570
C895        C  0.93366200  0.06502412  0.51295376    -0.10520
H896        H  0.88075731  0.00606637  0.50594346     0.09160
H897        H  0.97113327  0.49289233  0.50600250     0.06690
H898        H  0.93708854  0.09184276  0.51373443     0.06540
Zn899      Zn  0.97121161  0.35315316  0.04753690     1.49720
Zn900      Zn  0.96082148  0.40152009  0.95703591     1.49360
Zn901      Zn  0.93141251  0.33336655  0.95532649     1.49110
Zn902      Zn  0.90886161  0.38717788  0.03527118     1.49480
O903        O  0.94264600  0.36937507  0.99984670    -1.83680
O904        O  0.50989690  0.37339618  0.03869974    -0.74310
O905        O  0.95446436  0.39327271  0.88253707    -0.74130
O906        O  0.95870465  0.29618007  0.96021820    -0.73650
O907        O  0.00276484  0.40525124  0.97101662    -0.74330
O908        O  0.97815778  0.30518933  0.03632357    -0.73930
O909        O  0.92833097  0.34707954  0.88172768    -0.74510
O910        O  0.87433658  0.35446046  0.02241146    -0.73900
O911        O  0.94432999  0.44496199  0.97485562    -0.74660
O912        O  0.89521965  0.31382580  0.97837123    -0.74050
O913        O  0.90501508  0.43930512  0.02069650    -0.74510
O914        O  0.91624775  0.38381522  0.11166981    -0.74420
O915        O  0.95916648  0.36103571  0.11895677    -0.74210
C916        C  0.51904502  0.39344038  0.00522043     0.77580
C917        C  0.94023505  0.37122237  0.85857999     0.78070
C918        C  0.97413005  0.28715461  0.99725734     0.77030
C919        C  0.87416504  0.32481221  0.00312659     0.77400
C920        C  0.92368778  0.45783159  0.99887485     0.78540
C921        C  0.93690952  0.37330036  0.13860285     0.77590
Zn922      Zn  0.93168192  0.33270718  0.45576206     1.49720
Zn923      Zn  0.90985779  0.38675634  0.53712590     1.49360
Zn924      Zn  0.97200016  0.35238879  0.54602772     1.49110
Zn925      Zn  0.96051618  0.40134477  0.45599769     1.49480
O926        O  0.94303994  0.36896454  0.49964822    -1.83680
O927        O  0.89535969  0.31382557  0.47909807    -0.74310
O928        O  0.91840477  0.38362778  0.61352024    -0.74130
O929        O  0.97916974  0.30460392  0.53485561    -0.73650
O930        O  0.87519465  0.35401325  0.52523258    -0.74330
O931        O  0.95847791  0.29514745  0.46015970    -0.73930
O932        O  0.96076946  0.35957914  0.61761501    -0.74510
O933        O  0.00274364  0.40475540  0.46852777    -0.73900
O934        O  0.90580485  0.43891491  0.52279742    -0.74660
O935        O  0.51034747  0.37296983  0.53620968    -0.74050
O936        O  0.94448408  0.44493182  0.47528860    -0.74510
O937        O  0.95273069  0.39339246  0.38138255    -0.74420
O938        O  0.92892323  0.34578234  0.38230943    -0.74210
C939        C  0.87465989  0.32464056  0.50496908     0.77580
C940        C  0.93940950  0.37257104  0.63916768     0.78070
C941        C  0.97448087  0.28626025  0.49641050     0.77030
C942        C  0.51924996  0.39297211  0.50247106     0.77400
C943        C  0.92416516  0.45761087  0.50044725     0.78540
C944        C  0.93929454  0.37033374  0.35799415     0.77590
C945        C  0.59958947  0.39706399  0.00881277     0.03570
C946        C  0.57186706  0.38395951  0.01085142    -0.12580
C947        C  0.54848812  0.40552127  0.00780327     0.01070
C948        C  0.55278094  0.43993260  0.00544745    -0.11100
C949        C  0.57997603  0.45415144  0.00489179     0.03570
C950        C  0.60352870  0.43252113  0.00661594    -0.10520
H951        H  0.56848598  0.35713551  0.01166377     0.09160
H952        H  0.53426255  0.45596834  0.00423725     0.06690
H953        H  0.62466511  0.44305758  0.00464542     0.06540
C954        C  0.59978268  0.39663857  0.50750400     0.03570
C955        C  0.57205187  0.38352976  0.50876580    -0.12580
C956        C  0.54869510  0.40506352  0.50470722     0.01070
C957        C  0.55299559  0.43945682  0.50210269    -0.11100
C958        C  0.58019000  0.45370379  0.50257502     0.03570
C959        C  0.60372590  0.43209238  0.50529498    -0.10520
H960        H  0.56867360  0.35670990  0.50984009     0.09160
H961        H  0.53446875  0.45545234  0.50032864     0.06690
H962        H  0.62487849  0.44264033  0.50413660     0.06540
Zn963      Zn  0.59568383  0.06211910  0.03619851     1.49720
Zn964      Zn  0.57327896  0.11597820  0.95537670     1.49360
Zn965      Zn  0.54415085  0.04752564  0.95629536     1.49110
Zn966      Zn  0.53357634  0.09645793  0.04655362     1.49480
O967        O  0.56213530  0.07990416  0.99953641    -1.83680
O968        O  0.63022788  0.09478627  0.02402398    -0.74310
O969        O  0.57584826  0.10227767  0.88190733    -0.74130
O970        O  0.56052754  0.00411425  0.97493432    -0.73650
O971        O  0.60970830  0.13504443  0.97859786    -0.74330
O972        O  0.59970359  0.01002339  0.02150538    -0.73930
O973        O  0.55122324  0.05514310  0.88161599    -0.74510
O974        O  0.99504431  0.07589193  0.03758018    -0.73900
O975        O  0.54643455  0.15359946  0.96012468    -0.74660
O976        O  0.50206449  0.04400747  0.96972328    -0.74050
O977        O  0.52642811  0.14425606  0.03528603    -0.74510
O978        O  0.54563161  0.08947921  0.11796513    -0.74420
O979        O  0.58797943  0.06549065  0.11269662    -0.74210
C980        C  0.63058171  0.12421894  0.00415529     0.77580
C981        C  0.56497202  0.07765064  0.85801290     0.78070
C982        C  0.58112539  0.99138449  0.99938949     0.77030
C983        C  0.98584368  0.05582991  0.00397909     0.77400
C984        C  0.53079877  0.16255720  0.99679245     0.78540
C985        C  0.56744775  0.07695495  0.13896159     0.77590
Zn986      Zn  0.59623982  0.06126713  0.53580138     1.49720
Zn987      Zn  0.53452930  0.09662927  0.54747191     1.49360
Zn988      Zn  0.57434201  0.11530413  0.45524252     1.49110
Zn989      Zn  0.54416310  0.04764027  0.45707441     1.49480
O990        O  0.56273365  0.07961662  0.49993280    -1.83680
O991        O  0.58849813  0.06391447  0.61218872    -0.74310
O992        O  0.52683817  0.14400009  0.53403535    -0.74130
O993        O  0.61056657  0.13451148  0.47888818    -0.73650
O994        O  0.54765519  0.09151487  0.61889498    -0.74330
O995        O  0.63087419  0.09415453  0.52437979    -0.73930
O996        O  0.54742370  0.15291445  0.45917542    -0.74510
O997        O  0.54993021  0.05616763  0.38248222    -0.73900
O998        O  0.99596153  0.07543007  0.54053447    -0.74660
O999        O  0.57717116  0.10145784  0.38169325    -0.74050
O1000       O  0.50232880  0.04399431  0.47199395    -0.74510
O1001       O  0.56070872  0.00404255  0.47407623    -0.74420
O1002       O  0.60013667  0.00934415  0.52007053    -0.74210
C1003       C  0.56902952  0.07735311  0.63886385     0.77580
C1004       C  0.53140551  0.16194869  0.49525979     0.78070
C1005       C  0.63132433  0.12365429  0.50468780     0.77030
C1006       C  0.56426852  0.07797567  0.35846285     0.77400
C1007       C  0.98644979  0.05551738  0.50695377     0.78540
C1008       C  0.58139840  0.99098848  0.49786937     0.77590
C1009       C  0.56659087  0.04665605  0.72046218    -0.08710
C1010       C  0.57087582  0.07679389  0.69454964     0.07490
C1011       C  0.57412216  0.10662822  0.72225564    -0.02480
C1012       C  0.57286899  0.10606522  0.77526974    -0.06930
C1013       C  0.56773878  0.07609868  0.80178499     0.06600
C1014       C  0.56474794  0.04600610  0.77359855    -0.01950
Br1015     Br  0.55836199  0.00307468  0.80435924    -0.01650
H1016       H  0.56379549  0.02364948  0.69914285     0.10510
H1017       H  0.57517298  0.12947064  0.79571636     0.08530
Br1018     Br  0.58021745  0.14878676  0.68909578    -0.02080
C1019       C  0.59134092  0.08097420  0.27740851    -0.08710
C1020       C  0.56538624  0.07639910  0.30249581     0.07490
C1021       C  0.54058579  0.07143236  0.27352606    -0.02480
C1022       C  0.54207988  0.07102024  0.22059434    -0.06930
C1023       C  0.56797854  0.07547112  0.19518840     0.06600
C1024       C  0.59288038  0.08033793  0.22418343    -0.01950
Br1025     Br  0.62912844  0.08858683  0.19366687    -0.01650
H1026       H  0.61049290  0.08517025  0.29932524     0.10510
H1027       H  0.52267557  0.06758201  0.19907906     0.08530
Br1028     Br  0.00366735  0.06791330  0.30378215    -0.02080
C1029       C  0.51823283  0.25389758  0.49823865    -0.08710
C1030       C  0.98868552  0.25434564  0.49348834     0.07490
C1031       C  0.97334239  0.22444103  0.48749983    -0.02480
C1032       C  0.98783298  0.19422666  0.48739262    -0.06930
C1033       C  0.51735317  0.19385212  0.49219521     0.06600
C1034       C  0.53273171  0.22373154  0.49717752    -0.01950
Br1035     Br  0.57312325  0.22434614  0.50552224    -0.01650
H1036       H  0.52997979  0.27705031  0.50294594     0.10510
H1037       H  0.97608815  0.17096981  0.48411720     0.08530
Br1038     Br  0.93274686  0.22344217  0.48290846    -0.02080
C1039       C  0.96396908  0.37980149  0.77618644    -0.08710
C1040       C  0.93888263  0.37304159  0.80264657     0.07490
C1041       C  0.91358045  0.36780835  0.77512108    -0.02480
C1042       C  0.91389816  0.36884233  0.72186574    -0.06930
C1043       C  0.93926884  0.37440453  0.69531803     0.06600
C1044       C  0.96447572  0.38026508  0.72317685    -0.01950
Br1045     Br  0.50026999  0.39014659  0.69168802    -0.01650
H1046       H  0.98351683  0.38410153  0.79693214     0.10510
H1047       H  0.89436874  0.36449033  0.70113355     0.08530
Br1048     Br  0.87794316  0.36050397  0.80830133    -0.02080
C1049       C  0.91793402  0.35235992  0.22008050    -0.08710
C1050       C  0.93533879  0.37495910  0.19422930     0.07490
C1051       C  0.95308468  0.39656887  0.22195123    -0.02480
C1052       C  0.95336205  0.39521271  0.27500769    -0.06930
C1053       C  0.93654536  0.37193399  0.30160606     0.06600
C1054       C  0.91848713  0.35035842  0.27320404    -0.01950
Br1055     Br  0.89418577  0.31711162  0.30302437    -0.01650
H1056       H  0.90450269  0.33536992  0.19867600     0.10510
H1057       H  0.96743452  0.41200045  0.29537141     0.08530
Br1058     Br  0.97745162  0.42820411  0.18874291    -0.02080
C1059       C  0.98711621  0.19506823  0.99843124    -0.08710
C1060       C  0.51668123  0.19455542  0.99444045     0.07490
C1061       C  0.53213895  0.22447638  0.99011978    -0.02480
C1062       C  0.51774250  0.25476241  0.99082674    -0.06930
C1063       C  0.98819284  0.25520451  0.99473971     0.06600
C1064       C  0.97270830  0.22531239  0.99808013    -0.01950
Br1065     Br  0.93224962  0.22473033  0.00476291    -0.01650
H1066       H  0.97528263  0.17190085  0.00191134     0.10510
H1067       H  0.52956844  0.27800318  0.98859288     0.08530
Br1068     Br  0.57274033  0.22531348  0.98641971    -0.02080
C1069       C  0.66987177  0.30681337  0.77747063    -0.08710
C1070       C  0.68874596  0.32820727  0.80284293     0.07490
C1071       C  0.70659310  0.34923648  0.77471758    -0.02480
C1072       C  0.70540799  0.34875233  0.72180907    -0.06930
C1073       C  0.68655443  0.32742881  0.69552767     0.06600
C1074       C  0.66849067  0.30629250  0.72418643    -0.01950
Br1075     Br  0.64229118  0.27522328  0.69394728    -0.01650
H1076       H  0.65617171  0.29045370  0.79921484     0.10510
H1077       H  0.71953308  0.36523712  0.70120533     0.08530
Br1078     Br  0.73377034  0.37818040  0.80706358    -0.02080
C1079       C  0.71307086  0.32167237  0.22083807    -0.08710
C1080       C  0.68707698  0.32540548  0.19525619     0.07490
C1081       C  0.66210664  0.32943590  0.22411790    -0.02480
C1082       C  0.66367951  0.32996922  0.27735232    -0.06930
C1083       C  0.68972676  0.32608803  0.30253283     0.06600
C1084       C  0.71458478  0.32198996  0.27376056    -0.01950
Br1085     Br  0.75153752  0.31955311  0.30442338    -0.01650
H1086       H  0.73253002  0.31885274  0.19949623     0.10510
H1087       H  0.64449112  0.33353042  0.29920417     0.08530
Br1088     Br  0.62565791  0.33658251  0.19351575    -0.02080
C1089       C  0.78259754  0.47659785  0.49438280    -0.08710
C1090       C  0.76630017  0.00550269  0.48952987     0.07490
C1091       C  0.73674590  0.00355436  0.48403598    -0.02480
C1092       C  0.72366612  0.47237272  0.48414442    -0.06930
C1093       C  0.73985797  0.44346265  0.49101680     0.06600
C1094       C  0.76949884  0.44549737  0.49569799    -0.01950
Br1095     Br  0.79300227  0.40675987  0.50295496    -0.01650
H1096       H  0.80541493  0.47833166  0.49856391     0.10510
H1097       H  0.70082660  0.47072047  0.48040129     0.08530
Br1098     Br  0.71364256  0.04264254  0.47623609    -0.02080
C1099       C  0.82166448  0.09228130  0.77549835    -0.08710
C1100       C  0.81774202  0.12251317  0.80201728     0.07490
C1101       C  0.81594259  0.15267667  0.77396152    -0.02480
C1102       C  0.81772787  0.15187472  0.72081891    -0.06930
C1103       C  0.82074349  0.12149417  0.69483046     0.06600
C1104       C  0.82283426  0.09156629  0.72249105    -0.01950
Br1105     Br  0.82733968  0.04908482  0.68933956    -0.01650
H1106       H  0.82305855  0.06883843  0.79595911     0.10510
H1107       H  0.81587709  0.17497865  0.69957465     0.08530
Br1108     Br  0.81144077  0.19584474  0.80513113    -0.02080
C1109       C  0.79221733  0.12412924  0.22127022    -0.08710
C1110       C  0.81835936  0.12347281  0.19565999     0.07490
C1111       C  0.84360644  0.12241450  0.22469591    -0.02480
C1112       C  0.84214940  0.12163750  0.27795219    -0.06930
C1113       C  0.81594036  0.12241062  0.30301450     0.06600
C1114       C  0.79083327  0.12359254  0.27418124    -0.01950
Br1115     Br  0.75394757  0.12180849  0.30489832    -0.01650
H1116       H  0.77253646  0.12472912  0.19999844     0.10510
H1117       H  0.86156615  0.12040908  0.29992320     0.08530
Br1118     Br  0.88053542  0.12000989  0.19450459    -0.02080
C1119       C  0.72300105  0.47238451  0.99274932    -0.08710
C1120       C  0.73954670  0.44347516  0.99402180     0.07490
C1121       C  0.76925758  0.44549202  0.99331842    -0.02480
C1122       C  0.78218742  0.47669741  0.99227159    -0.06930
C1123       C  0.76564026  0.00561140  0.99295309     0.06600
C1124       C  0.73593183  0.00358878  0.99276574    -0.01950
Br1125     Br  0.71230700  0.04251463  0.99146236    -0.01650
H1126       H  0.70007350  0.47064238  0.99289428     0.10510
H1127       H  0.80511452  0.47845224  0.99216004     0.08530
Br1128     Br  0.79288382  0.40657470  0.99249561    -0.02080
C1129       C  0.84937391  0.80186926  0.00807510     0.03570
C1130       C  0.85328285  0.76647650  0.00602159    -0.12580
C1131       C  0.82974890  0.74474650  0.00404108     0.01070
C1132       C  0.80253212  0.75880307  0.00396996    -0.11100
C1133       C  0.79826597  0.79316962  0.00630396     0.03570
C1134       C  0.82166697  0.81479748  0.00989349    -0.10520
H1135       H  0.87439200  0.75605241  0.00435185     0.09160
H1136       H  0.78399744  0.74269810  0.00248185     0.06690
H1137       H  0.81837495  0.84151852  0.01107163     0.06540
C1138       C  0.84984766  0.80176734  0.51000904     0.03570
C1139       C  0.85371346  0.76638712  0.50726104    -0.12580
C1140       C  0.83015001  0.74473021  0.50476120     0.01070
C1141       C  0.80295558  0.75883693  0.50512074    -0.11100
C1142       C  0.79872545  0.79320935  0.50832323     0.03570
C1143       C  0.82217128  0.81474852  0.51218926    -0.10520
H1144       H  0.87481900  0.75593570  0.50544788     0.09280
H1145       H  0.78441235  0.74276341  0.50326847     0.06690
H1146       H  0.81894308  0.84147976  0.51366416     0.06540
Zn1147     Zn  0.79392580  0.65123708  0.95626023     1.49720
Zn1148     Zn  0.84574023  0.63718552  0.03621926     1.49360
Zn1149     Zn  0.78352637  0.60309302  0.04692240     1.49110
Zn1150     Zn  0.82318370  0.58334196  0.95553355     1.49480
O1151       O  0.81208935  0.61935071  0.99973327    -1.83680
O1152       O  0.81040907  0.69455604  0.97460573    -0.74310
O1153       O  0.83817524  0.63400588  0.11290924    -0.74130
O1154       O  0.74523242  0.62418101  0.03904026    -0.73650
O1155       O  0.84962634  0.68920404  0.02118179    -0.74330
O1156       O  0.75186537  0.65489007  0.96996156    -0.73930
O1157       O  0.79604003  0.60940701  0.11818984    -0.74510
O1158       O  0.79588339  0.54622085  0.95974188    -0.73900
O1159       O  0.88024869  0.60452166  0.02354349    -0.74660
O1160       O  0.77553420  0.55563491  0.03465793    -0.74050
O1161       O  0.85943373  0.56400620  0.97866075    -0.74510
O1162       O  0.82600266  0.59687147  0.88219230    -0.74420
O1163       O  0.80093642  0.64354638  0.88156227    -0.74210
C1164       C  0.83099013  0.70754691  0.99893028     0.77580
C1165       C  0.81779989  0.62217940  0.13926732     0.78070
C1166       C  0.73586449  0.64369740  0.00502891     0.77030
C1167       C  0.77973549  0.53755515  0.99582220     0.77400
C1168       C  0.88046942  0.57499544  0.00378612     0.78540
C1169       C  0.81494700  0.62119810  0.85816779     0.77590
Zn1170     Zn  0.79424889  0.65096052  0.45739206     1.49720
Zn1171     Zn  0.84623214  0.63730682  0.53630481     1.49360
Zn1172     Zn  0.78433577  0.60211472  0.54747497     1.49110
Zn1173     Zn  0.82438558  0.58359151  0.45537021     1.49480
O1174       O  0.81271110  0.61909868  0.50023228    -1.83680
O1175       O  0.81073724  0.69455691  0.47503133    -0.74310
O1176       O  0.83839453  0.63456926  0.61260578    -0.74130
O1177       O  0.74602816  0.62371778  0.54108512    -0.73650
O1178       O  0.85011756  0.68920438  0.52114379    -0.74330
O1179       O  0.75241184  0.65452543  0.47203011    -0.73930
O1180       O  0.79755754  0.60670663  0.61898474    -0.74510
O1181       O  0.79687092  0.54643271  0.45802953    -0.73900
O1182       O  0.88083164  0.60448727  0.52463546    -0.74660
O1183       O  0.77593396  0.55501171  0.53270965    -0.74050
O1184       O  0.86031539  0.56393283  0.47942872    -0.74510
O1185       O  0.82789948  0.59773748  0.38212301    -0.74420
O1186       O  0.80014053  0.64247036  0.38277455    -0.74210
C1187       C  0.83138996  0.70755145  0.49919798     0.77580
C1188       C  0.81892726  0.62095089  0.63912752     0.78070
C1189       C  0.73655158  0.64333824  0.50726214     0.77030
C1190       C  0.78037570  0.53742107  0.49343549     0.77400
C1191       C  0.88116333  0.57489934  0.50506825     0.78540
C1192       C  0.81484718  0.62096705  0.35889060     0.77590
C1193       C  0.65537448  0.64713071  0.00942574     0.03570
C1194       C  0.68307412  0.63418397  0.01142414    -0.12580
C1195       C  0.70648017  0.65578296  0.00793118     0.01070
C1196       C  0.70221195  0.69016229  0.00553784    -0.11100
C1197       C  0.67499157  0.70422729  0.00533232     0.03570
C1198       C  0.65145755  0.68251569  0.00727961    -0.10520
H1199       H  0.68635339  0.60744109  0.01253573     0.09160
H1200       H  0.72073903  0.70626693  0.00400142     0.06690
H1201       H  0.63034149  0.69293134  0.00546264     0.06540
C1202       C  0.65607370  0.64663521  0.51040941     0.03570
C1203       C  0.68378077  0.63375495  0.51326892    -0.12580
C1204       C  0.70716754  0.65542213  0.51019625     0.01070
C1205       C  0.70286529  0.68980637  0.50720309    -0.11100
C1206       C  0.67563748  0.70381917  0.50608793     0.03570
C1207       C  0.65213480  0.68202752  0.50771248    -0.10520
H1208       H  0.68713006  0.60699132  0.51458239     0.09160
H1209       H  0.72136651  0.70595632  0.50577709     0.06690
H1210       H  0.63102967  0.69238325  0.50511722     0.06540
Zn1211     Zn  0.71036393  0.79744763  0.95608674     1.49720
Zn1212     Zn  0.72162310  0.84577464  0.04686771     1.49360
Zn1213     Zn  0.68168653  0.86603901  0.95595013     1.49110
Zn1214     Zn  0.65914629  0.81206770  0.03609397     1.49480
O1215       O  0.69272615  0.82974005  0.99963273    -1.83680
O1216       O  0.75259337  0.79399051  0.96897075    -0.74310
O1217       O  0.72991021  0.89328145  0.03539389    -0.74130
O1218       O  0.67961656  0.85330593  0.88227039    -0.73650
O1219       O  0.75973846  0.82461426  0.03821224    -0.74330
O1220       O  0.70283074  0.80502343  0.88152168    -0.73930
O1221       O  0.70887619  0.90312337  0.96114541    -0.74510
O1222       O  0.62465480  0.84473654  0.02349355    -0.73900
O1223       O  0.70949128  0.83918464  0.11814934    -0.74660
O1224       O  0.64533733  0.88520164  0.97869226    -0.74050
O1225       O  0.66692431  0.81552256  0.11261492    -0.74510
O1226       O  0.65516388  0.75992513  0.02166545    -0.74420
O1227       O  0.69417422  0.75416474  0.97501251    -0.74210
C1228       C  0.76885739  0.80519257  0.00386148     0.77580
C1229       C  0.72540603  0.91155996  0.99694435     0.78070
C1230       C  0.69005298  0.82854081  0.85850046     0.77030
C1231       C  0.62437771  0.87423589  0.00380347     0.77400
C1232       C  0.68756751  0.82686041  0.13901917     0.78540
C1233       C  0.67371701  0.74138292  0.99965119     0.77590
Zn1234     Zn  0.72174143  0.84633215  0.54669389     1.49720
Zn1235     Zn  0.71117762  0.79728172  0.45697583     1.49360
Zn1236     Zn  0.65949870  0.81184104  0.53593467     1.49110
Zn1237     Zn  0.68173556  0.86534172  0.45498848     1.49480
O1238       O  0.69307425  0.82959331  0.49963140    -1.83680
O1239       O  0.76015306  0.82529753  0.53917949    -0.74310
O1240       O  0.69480928  0.75374563  0.47526331    -0.74130
O1241       O  0.66713165  0.81576905  0.61245266    -0.73650
O1242       O  0.75313360  0.79372920  0.47095622    -0.74330
O1243       O  0.70925139  0.84028849  0.61793937    -0.73930
O1244       O  0.65579583  0.75958417  0.52193332    -0.74510
O1245       O  0.64562944  0.88479829  0.47807311    -0.73900
O1246       O  0.70491234  0.80546958  0.38243663    -0.74660
O1247       O  0.62486735  0.84433615  0.52274821    -0.74050
O1248       O  0.67863713  0.85142867  0.38156210    -0.74510
O1249       O  0.70914981  0.90259211  0.45879763    -0.74420
O1250       O  0.72961336  0.89387577  0.53390871    -0.74210
C1251       C  0.76933305  0.80533192  0.50557822     0.77580
C1252       C  0.67433823  0.74099021  0.49996537     0.78070
C1253       C  0.68750104  0.82762865  0.63898926     0.77030
C1254       C  0.62461867  0.87383445  0.50302011     0.77400
C1255       C  0.69094089  0.82759210  0.35842821     0.78540
C1256       C  0.72544355  0.91160851  0.49470675     0.77590
C1257       C  0.90529680  0.55218786  0.00856537     0.03570
C1258       C  0.93303577  0.56529991  0.01015885    -0.12580
C1259       C  0.95639967  0.54374397  0.00660254     0.01070
C1260       C  0.95208856  0.50933438  0.00425114    -0.11100
C1261       C  0.92488396  0.99509859  0.00417181     0.03570
C1262       C  0.90134644  0.51672839  0.00636181    -0.10520
H1263       H  0.93641602  0.59212541  0.01103116     0.09160
H1264       H  0.97061149  0.99332092  0.00278390     0.06690
H1265       H  0.88019533  0.50618807  0.00475120     0.06540
C1266       C  0.90590660  0.55199964  0.51063670     0.03570
C1267       C  0.90191259  0.51654291  0.50823952    -0.12580
C1268       C  0.92542436  0.99483664  0.50653137     0.01070
C1269       C  0.95265609  0.50898531  0.50738202    -0.11100
C1270       C  0.95701524  0.54340529  0.50999112     0.03570
C1271       C  0.93366200  0.56502411  0.51295376    -0.10520
H1272       H  0.88075731  0.50606637  0.50594346     0.09160
H1273       H  0.97113327  0.99289234  0.50600249     0.06690
H1274       H  0.93708854  0.59184276  0.51373443     0.06540
Zn1275     Zn  0.97121161  0.85315316  0.04753690     1.49720
Zn1276     Zn  0.96082148  0.90152009  0.95703592     1.49360
Zn1277     Zn  0.93141251  0.83336656  0.95532649     1.49110
Zn1278     Zn  0.90886161  0.88717788  0.03527118     1.49480
O1279       O  0.94264600  0.86937507  0.99984670    -1.83680
O1280       O  0.50989690  0.87339618  0.03869974    -0.74310
O1281       O  0.95446436  0.89327272  0.88253707    -0.74130
O1282       O  0.95870465  0.79618007  0.96021819    -0.73650
O1283       O  0.00276484  0.90525124  0.97101662    -0.74330
O1284       O  0.97815778  0.80518933  0.03632357    -0.73930
O1285       O  0.92833097  0.84707955  0.88172768    -0.74510
O1286       O  0.87433658  0.85446046  0.02241146    -0.73900
O1287       O  0.94432999  0.94496199  0.97485562    -0.74660
O1288       O  0.89521965  0.81382580  0.97837123    -0.74050
O1289       O  0.90501508  0.93930513  0.02069650    -0.74510
O1290       O  0.91624775  0.88381522  0.11166981    -0.74420
O1291       O  0.95916648  0.86103571  0.11895677    -0.74210
C1292       C  0.51904502  0.89344038  0.00522043     0.77580
C1293       C  0.94023505  0.87122237  0.85857999     0.78070
C1294       C  0.97413005  0.78715461  0.99725734     0.77030
C1295       C  0.87416504  0.82481221  0.00312659     0.77400
C1296       C  0.92368778  0.95783159  0.99887485     0.78540
C1297       C  0.93690951  0.87330036  0.13860285     0.77590
Zn1298     Zn  0.93168192  0.83270718  0.45576207     1.49720
Zn1299     Zn  0.90985779  0.88675634  0.53712590     1.49360
Zn1300     Zn  0.97200016  0.85238880  0.54602772     1.49110
Zn1301     Zn  0.96051617  0.90134477  0.45599769     1.49480
O1302       O  0.94303994  0.86896454  0.49964822    -1.83680
O1303       O  0.89535969  0.81382557  0.47909807    -0.74310
O1304       O  0.91840476  0.88362778  0.61352024    -0.74130
O1305       O  0.97916974  0.80460392  0.53485561    -0.73650
O1306       O  0.87519465  0.85401325  0.52523258    -0.74330
O1307       O  0.95847791  0.79514745  0.46015970    -0.73930
O1308       O  0.96076945  0.85957914  0.61761501    -0.74510
O1309       O  0.00274364  0.90475540  0.46852777    -0.73900
O1310       O  0.90580485  0.93891492  0.52279742    -0.74660
O1311       O  0.51034747  0.87296983  0.53620969    -0.74050
O1312       O  0.94448408  0.94493182  0.47528860    -0.74510
O1313       O  0.95273069  0.89339246  0.38138255    -0.74420
O1314       O  0.92892323  0.84578234  0.38230943    -0.74210
C1315       C  0.87465989  0.82464056  0.50496908     0.77580
C1316       C  0.93940949  0.87257104  0.63916768     0.78070
C1317       C  0.97448087  0.78626025  0.49641050     0.77030
C1318       C  0.51924996  0.89297211  0.50247107     0.77400
C1319       C  0.92416516  0.95761087  0.50044724     0.78540
C1320       C  0.93929454  0.87033374  0.35799415     0.77590
C1321       C  0.59958947  0.89706399  0.00881278     0.03570
C1322       C  0.57186706  0.88395951  0.01085142    -0.12580
C1323       C  0.54848812  0.90552127  0.00780328     0.01070
C1324       C  0.55278094  0.93993260  0.00544746    -0.11100
C1325       C  0.57997603  0.95415144  0.00489179     0.03570
C1326       C  0.60352870  0.93252113  0.00661594    -0.10520
H1327       H  0.56848598  0.85713550  0.01166377     0.09160
H1328       H  0.53426255  0.95596834  0.00423725     0.06690
H1329       H  0.62466511  0.94305758  0.00464542     0.06540
C1330       C  0.59978268  0.89663857  0.50750400     0.03570
C1331       C  0.57205187  0.88352976  0.50876581    -0.12580
C1332       C  0.54869510  0.90506352  0.50470722     0.01070
C1333       C  0.55299559  0.93945681  0.50210269    -0.11100
C1334       C  0.58019000  0.95370379  0.50257503     0.03570
C1335       C  0.60372590  0.93209238  0.50529498    -0.10520
H1336       H  0.56867359  0.85670990  0.50984009     0.09160
H1337       H  0.53446875  0.95545234  0.50032864     0.06690
H1338       H  0.62487849  0.94264033  0.50413660     0.06540
Zn1339     Zn  0.59568383  0.56211910  0.03619851     1.49720
Zn1340     Zn  0.57327896  0.61597820  0.95537670     1.49360
Zn1341     Zn  0.54415085  0.54752564  0.95629536     1.49110
Zn1342     Zn  0.53357634  0.59645793  0.04655362     1.49480
O1343       O  0.56213530  0.57990416  0.99953640    -1.83680
O1344       O  0.63022788  0.59478627  0.02402399    -0.74310
O1345       O  0.57584826  0.60227768  0.88190733    -0.74130
O1346       O  0.56052754  0.50411425  0.97493432    -0.73650
O1347       O  0.60970830  0.63504443  0.97859786    -0.74330
O1348       O  0.59970359  0.51002339  0.02150538    -0.73930
O1349       O  0.55122324  0.55514310  0.88161599    -0.74510
O1350       O  0.99504431  0.57589193  0.03758018    -0.73900
O1351       O  0.54643455  0.65359946  0.96012468    -0.74660
O1352       O  0.50206449  0.54400747  0.96972328    -0.74050
O1353       O  0.52642810  0.64425606  0.03528603    -0.74510
O1354       O  0.54563161  0.58947921  0.11796512    -0.74420
O1355       O  0.58797942  0.56549065  0.11269662    -0.74210
C1356       C  0.63058171  0.62421894  0.00415529     0.77580
C1357       C  0.56497202  0.57765064  0.85801290     0.78070
C1358       C  0.58112539  0.49138450  0.99938949     0.77030
C1359       C  0.98584368  0.55582991  0.00397909     0.77400
C1360       C  0.53079877  0.66255720  0.99679244     0.78540
C1361       C  0.56744775  0.57695495  0.13896159     0.77590
Zn1362     Zn  0.59623982  0.56126714  0.53580138     1.49720
Zn1363     Zn  0.53452930  0.59662927  0.54747191     1.49360
Zn1364     Zn  0.57434201  0.61530414  0.45524252     1.49110
Zn1365     Zn  0.54416310  0.54764027  0.45707441     1.49480
O1366       O  0.56273364  0.57961662  0.49993280    -1.83680
O1367       O  0.58849813  0.56391447  0.61218872    -0.74310
O1368       O  0.52683817  0.64400009  0.53403535    -0.74130
O1369       O  0.61056656  0.63451148  0.47888818    -0.73650
O1370       O  0.54765519  0.59151487  0.61889498    -0.74330
O1371       O  0.63087419  0.59415453  0.52437978    -0.73930
O1372       O  0.54742369  0.65291445  0.45917542    -0.74510
O1373       O  0.54993020  0.55616764  0.38248222    -0.73900
O1374       O  0.99596153  0.57543007  0.54053447    -0.74660
O1375       O  0.57717116  0.60145784  0.38169325    -0.74050
O1376       O  0.50232880  0.54399431  0.47199395    -0.74510
O1377       O  0.56070872  0.50404255  0.47407623    -0.74420
O1378       O  0.60013667  0.50934415  0.52007053    -0.74210
C1379       C  0.56902952  0.57735311  0.63886384     0.77580
C1380       C  0.53140551  0.66194869  0.49525980     0.78070
C1381       C  0.63132433  0.62365429  0.50468780     0.77030
C1382       C  0.56426852  0.57797568  0.35846285     0.77400
C1383       C  0.98644979  0.55551738  0.50695377     0.78540
C1384       C  0.58139840  0.49098848  0.49786936     0.77590
C1385       C  0.56659088  0.54665605  0.72046218    -0.08710
C1386       C  0.57087582  0.57679389  0.69454964     0.07490
C1387       C  0.57412216  0.60662822  0.72225564    -0.02480
C1388       C  0.57286899  0.60606522  0.77526974    -0.06930
C1389       C  0.56773878  0.57609868  0.80178499     0.06600
C1390       C  0.56474795  0.54600610  0.77359855    -0.01950
Br1391     Br  0.55836201  0.50307468  0.80435924    -0.01650
H1392       H  0.56379550  0.52364948  0.69914285     0.10510
H1393       H  0.57517297  0.62947064  0.79571636     0.08530
Br1394     Br  0.58021744  0.64878676  0.68909578    -0.02080
C1395       C  0.59134093  0.58097417  0.27740851    -0.08710
C1396       C  0.56538624  0.57639910  0.30249582     0.07490
C1397       C  0.54058578  0.57143239  0.27352606    -0.02480
C1398       C  0.54207987  0.57102027  0.22059434    -0.06930
C1399       C  0.56797854  0.57547112  0.19518840     0.06600
C1400       C  0.59288038  0.58033790  0.22418343    -0.01950
Br1401     Br  0.62912845  0.58858677  0.19366687    -0.01650
H1402       H  0.61049290  0.58517020  0.29932524     0.10510
H1403       H  0.52267556  0.56758206  0.19907906     0.08530
Br1404     Br  0.00366734  0.56791337  0.30378215    -0.02080
C1405       C  0.51823283  0.75389758  0.49823867    -0.08710
C1406       C  0.98868552  0.75434564  0.49348834     0.07490
C1407       C  0.97334239  0.72444103  0.48749983    -0.02480
C1408       C  0.98783298  0.69422666  0.48739262    -0.06930
C1409       C  0.51735316  0.69385212  0.49219521     0.06600
C1410       C  0.53273171  0.72373154  0.49717754    -0.01950
Br1411     Br  0.57312325  0.72434614  0.50552226    -0.01650
H1412       H  0.52997979  0.77705031  0.50294597     0.10510
H1413       H  0.97608814  0.67096981  0.48411719     0.08530
Br1414     Br  0.93274686  0.72344217  0.48290845    -0.02080
C1415       C  0.96396908  0.87980150  0.77618644    -0.08710
C1416       C  0.93888263  0.87304160  0.80264657     0.07490
C1417       C  0.91358045  0.86780836  0.77512108    -0.02480
C1418       C  0.91389816  0.86884234  0.72186574    -0.06930
C1419       C  0.93926884  0.87440454  0.69531803     0.06600
C1420       C  0.96447572  0.88026509  0.72317685    -0.01950
Br1421     Br  0.50026998  0.89014660  0.69168802    -0.01650
H1422       H  0.98351683  0.88410154  0.79693213     0.10510
H1423       H  0.89436874  0.86449034  0.70113355     0.08530
Br1424     Br  0.87794316  0.86050398  0.80830133    -0.02080
C1425       C  0.91793401  0.85235992  0.22008050    -0.08710
C1426       C  0.93533878  0.87495910  0.19422930     0.07490
C1427       C  0.95308468  0.89656887  0.22195123    -0.02480
C1428       C  0.95336204  0.89521270  0.27500769    -0.06930
C1429       C  0.93654536  0.87193400  0.30160606     0.06600
C1430       C  0.91848712  0.85035842  0.27320404    -0.01950
Br1431     Br  0.89418576  0.81711163  0.30302438    -0.01650
H1432       H  0.90450269  0.83536992  0.19867600     0.10510
H1433       H  0.96743452  0.91200045  0.29537141     0.08530
Br1434     Br  0.97745162  0.92820411  0.18874291    -0.02080
C1435       C  0.98711621  0.69506823  0.99843124    -0.08710
C1436       C  0.51668123  0.69455542  0.99444044     0.07490
C1437       C  0.53213895  0.72447638  0.99011978    -0.02480
C1438       C  0.51774250  0.75476241  0.99082673    -0.06930
C1439       C  0.98819284  0.75520451  0.99473970     0.06600
C1440       C  0.97270830  0.72531239  0.99808013    -0.01950
Br1441     Br  0.93224962  0.72473033  0.00476291    -0.01650
H1442       H  0.97528263  0.67190085  0.00191134     0.10510
H1443       H  0.52956844  0.77800318  0.98859287     0.08530
Br1444     Br  0.57274033  0.72531348  0.98641970    -0.02080
C1445       C  0.66987178  0.80681337  0.77747063    -0.08710
C1446       C  0.68874596  0.82820728  0.80284293     0.07490
C1447       C  0.70659309  0.84923649  0.77471758    -0.02480
C1448       C  0.70540798  0.84875235  0.72180907    -0.06930
C1449       C  0.68655443  0.82742882  0.69552767     0.06600
C1450       C  0.66849067  0.80629250  0.72418644    -0.01950
Br1451     Br  0.64229119  0.77522327  0.69394728    -0.01650
H1452       H  0.65617172  0.79045370  0.79921484     0.10510
H1453       H  0.71953307  0.86523714  0.70120533     0.08530
Br1454     Br  0.73377032  0.87818043  0.80706358    -0.02080
C1455       C  0.71307086  0.82167237  0.22083807    -0.08710
C1456       C  0.68707698  0.82540548  0.19525619     0.07490
C1457       C  0.66210664  0.82943590  0.22411790    -0.02480
C1458       C  0.66367951  0.82996923  0.27735233    -0.06930
C1459       C  0.68972676  0.82608803  0.30253283     0.06600
C1460       C  0.71458478  0.82198997  0.27376056    -0.01950
Br1461     Br  0.75153752  0.81955312  0.30442338    -0.01650
H1462       H  0.73253002  0.81885274  0.19949624     0.10510
H1463       H  0.64449112  0.83353042  0.29920417     0.08530
Br1464     Br  0.62565791  0.83658252  0.19351575    -0.02080
C1465       C  0.78259754  0.97659785  0.49438279    -0.08710
C1466       C  0.76630017  0.50550269  0.48952988     0.07490
C1467       C  0.73674590  0.50355436  0.48403599    -0.02480
C1468       C  0.72366612  0.97237272  0.48414441    -0.06930
C1469       C  0.73985798  0.94346265  0.49101679     0.06600
C1470       C  0.76949884  0.94549737  0.49569797    -0.01950
Br1471     Br  0.79300227  0.90675987  0.50295494    -0.01650
H1472       H  0.80541493  0.97833166  0.49856390     0.10510
H1473       H  0.70082660  0.97072047  0.48040128     0.08530
Br1474     Br  0.71364255  0.54264254  0.47623610    -0.02080
C1475       C  0.82166448  0.59228130  0.77549835    -0.08710
C1476       C  0.81774202  0.62251317  0.80201728     0.07490
C1477       C  0.81594260  0.65267667  0.77396153    -0.02480
C1478       C  0.81772787  0.65187472  0.72081891    -0.06930
C1479       C  0.82074349  0.62149417  0.69483046     0.06600
C1480       C  0.82283426  0.59156629  0.72249105    -0.01950
Br1481     Br  0.82733967  0.54908482  0.68933956    -0.01650
H1482       H  0.82305855  0.56883843  0.79595910     0.10510
H1483       H  0.81587709  0.67497866  0.69957465     0.08530
Br1484     Br  0.81144078  0.69584474  0.80513114    -0.02080
C1485       C  0.79221733  0.62412926  0.22127021    -0.08710
C1486       C  0.81835936  0.62347281  0.19565999     0.07490
C1487       C  0.84360644  0.62241445  0.22469591    -0.02480
C1488       C  0.84214940  0.62163746  0.27795219    -0.06930
C1489       C  0.81594035  0.62241061  0.30301450     0.06600
C1490       C  0.79083327  0.62359256  0.27418123    -0.01950
Br1491     Br  0.75394756  0.62180857  0.30489831    -0.01650
H1492       H  0.77253646  0.62472917  0.19999844     0.10510
H1493       H  0.86156614  0.62040901  0.29992320     0.08530
Br1494     Br  0.88053541  0.62000978  0.19450458    -0.02080
C1495       C  0.72300105  0.97238451  0.99274933    -0.08710
C1496       C  0.73954670  0.94347516  0.99402182     0.07490
C1497       C  0.76925758  0.94549202  0.99331843    -0.02480
C1498       C  0.78218742  0.97669741  0.99227160    -0.06930
C1499       C  0.76564025  0.50561140  0.99295308     0.06600
C1500       C  0.73593183  0.50358878  0.99276573    -0.01950
Br1501     Br  0.71230700  0.54251463  0.99146234    -0.01650
H1502       H  0.70007350  0.97064238  0.99289430     0.10510
H1503       H  0.80511452  0.97845224  0.99216005     0.08530
Br1504     Br  0.79288382  0.90657470  0.99249563    -0.02080
loop_ 
_geom_bond_atom_site_label_1 
_geom_bond_atom_site_label_2 
_geom_bond_distance 
_geom_bond_site_symmetry_2 
_ccdc_geom_bond_type 
C1            C2   1.428       .  A
C1            C6   1.408       .  A
C1          C167   1.491       .  S
C2            C3   1.409       .  A
C2            H7   1.082       .  S
C3            C4   1.403       .  A
C3           C36   1.494   1_554  S
C4            C5   1.390       .  A
C4            H8   1.085       .  S
C5            C6   1.404       .  A
C5          C100   1.471       .  S
C6            H9   1.080       .  S
C10          C11   1.428       .  A
C10          C15   1.408       .  A
C10         C187   1.490       .  S
C11          C12   1.409       .  A
C11          H16   1.082       .  S
C12          C13   1.403       .  A
C12          C59   1.494       .  S
C13          C14   1.391       .  A
C13          H17   1.085       .  S
C14          C15   1.404       .  A
C14         C123   1.472       .  S
C15          H18   1.080       .  S
Zn19         O23   1.916       .  S
Zn19         O24   1.956       .  S
Zn19         O28   2.024       .  S
Zn19         O35   2.017       .  S
Zn20         O23   1.984   1_554  S
Zn20         O25   2.054       .  S
Zn20         O27   2.124       .  S
Zn20         O31   2.116       .  S
Zn21         O23   1.946   1_554  S
Zn21         O26   2.006       .  S
Zn21         O29   1.980       .  S
Zn21         O32   1.959       .  S
Zn22         O23   1.923       .  S
Zn22         O30   1.966       .  S
Zn22         O33   1.974       .  S
Zn22         O34   2.010       .  S
O24          C36   1.271       .  A
O25          C37   1.277       .  A
O26          C38   1.268       .  A
O27          C36   1.287   1_554  A
O28          C38   1.275   1_556  A
O29          C37   1.271       .  A
O30          C39   1.267       .  A
O31          C40   1.289       .  A
O32          C39   1.267   1_554  A
O33          C40   1.268   1_556  A
O34          C41   1.273       .  A
O35          C41   1.272       .  A
C37         C358   1.485       .  S
C38          C67   1.472       .  S
C39         C371   1.440       .  S
C40         C129   1.491       .  S
C41         C348   1.485       .  S
Zn42         O46   1.912       .  S
Zn42         O47   1.961       .  S
Zn42         O51   2.018       .  S
Zn42         O58   2.012       .  S
Zn43         O46   1.979       .  S
Zn43         O48   2.046       .  S
Zn43         O50   2.120       .  S
Zn43         O54   2.119       .  S
Zn44         O46   1.951       .  S
Zn44         O49   2.012       .  S
Zn44         O52   1.989       .  S
Zn44         O55   1.961       .  S
Zn45         O46   1.927       .  S
Zn45         O53   1.972       .  S
Zn45         O56   1.974       .  S
Zn45         O57   2.017       .  S
O47          C59   1.272       .  A
O48          C60   1.276       .  A
O49          C61   1.268       .  A
O50          C59   1.286       .  A
O51          C61   1.274       .  A
O52          C60   1.271       .  A
O53          C62   1.268       .  A
O54          C63   1.289       .  A
O55          C62   1.267       .  A
O56          C63   1.268       .  A
O57          C64   1.272       .  A
O58          C64   1.272       .  A
C60         C351   1.468       .  S
C61          C76   1.472       .  S
C62         C338   1.440       .  S
C63         C138   1.492       .  S
C64         C361   1.473       .  S
C65          C66   1.408       .  A
C65          C70   1.428       .  A
C65         C228   1.490       .  S
C66          C67   1.403       .  A
C66          H71   1.081       .  S
C67          C68   1.391       .  A
C68          C69   1.403       .  A
C68          H72   1.085       .  S
C69          C70   1.409       .  A
C69         C105   1.494   1_554  S
C70          H73   1.082       .  S
C74          C75   1.408       .  A
C74          C79   1.429       .  A
C74         C253   1.491       .  S
C75          C76   1.404       .  A
C75          H80   1.082       .  S
C76          C77   1.392       .  A
C77          C78   1.403       .  A
C77          H81   1.085       .  S
C78          C79   1.409       .  A
C78         C124   1.496       .  S
C79          H82   1.081       .  S
Zn83         O87   1.917       .  S
Zn83         O88   2.026       .  S
Zn83         O92   2.017       .  S
Zn83         O99   1.955       .  S
Zn84         O87   1.949   1_554  S
Zn84         O89   1.962       .  S
Zn84         O91   2.003       .  S
Zn84         O95   1.980       .  S
Zn85         O87   1.924       .  S
Zn85         O90   2.006       .  S
Zn85         O93   1.962       .  S
Zn85         O96   1.974       .  S
Zn86         O87   1.984   1_554  S
Zn86         O94   2.115       .  S
Zn86         O97   2.050       .  S
Zn86         O98   2.125       .  S
O88         C100   1.275   1_556  A
O89         C101   1.267   1_554  A
O90         C102   1.271       .  A
O91         C100   1.267       .  A
O92         C102   1.271       .  A
O93         C101   1.266       .  A
O94         C103   1.289       .  A
O95         C104   1.271       .  A
O96         C103   1.269   1_556  A
O97         C104   1.277       .  A
O98         C105   1.287   1_554  A
O99         C105   1.271       .  A
C101        C368   1.440       .  S
C102        C318   1.466       .  S
C103        C193   1.491       .  S
C104        C328   1.481       .  S
Zn106       O110   1.948       .  S
Zn106       O111   2.010       .  S
Zn106       O115   1.982       .  S
Zn106       O122   1.965       .  S
Zn107       O110   1.914       .  S
Zn107       O112   1.963       .  S
Zn107       O114   2.018       .  S
Zn107       O118   2.010       .  S
Zn108       O110   1.983       .  S
Zn108       O113   2.050       .  S
Zn108       O116   2.127       .  S
Zn108       O119   2.118       .  S
Zn109       O110   1.927       .  S
Zn109       O117   1.971       .  S
Zn109       O120   2.015       .  S
Zn109       O121   1.972       .  S
O111        C123   1.268       .  A
O112        C124   1.272       .  A
O113        C125   1.277       .  A
O114        C123   1.274       .  A
O115        C125   1.272       .  A
O116        C124   1.287       .  A
O117        C126   1.268       .  A
O118        C127   1.272       .  A
O119        C126   1.289       .  A
O120        C127   1.272       .  A
O121        C128   1.268       .  A
O122        C128   1.268       .  A
C125        C321   1.489       .  S
C126        C202   1.491       .  S
C127        C331   1.473       .  S
C128        C341   1.445       .  S
C129        C130   1.409       .  A
C129        C134   1.430       .  A
C130        C131   1.404       .  A
C130        H135   1.084       .  S
C131        C132   1.391       .  A
C131        C231   1.472       .  S
C132        C509   1.403   1_545  A
C132        H512   1.085   1_545  S
C133        C508   1.403       .  A
C133        C510   1.410       .  A
C133        C168   1.497   1_554  S
C134        C509   1.410   1_545  A
C134        H137   1.083       .  S
H136        C508   1.085       .  S
C138        C139   1.430       .  A
C138        C143   1.409       .  A
C139        C516   1.411   1_545  A
C139        H144   1.083       .  S
C140        C515   1.411       .  A
C140        C517   1.403       .  A
C140        C191   1.497       .  S
C141        C142   1.392       .  A
C141        C516   1.403   1_545  A
C141        H521   1.085   1_545  S
C142        C143   1.404       .  A
C142        C255   1.472       .  S
C143        H146   1.084       .  S
H145        C517   1.085       .  S
Zn147       O151   1.952   1_554  S
Zn147       O156   1.967       .  S
Zn147       O163   1.990       .  S
Zn147       O904   2.009       .  S
Zn148       O151   1.913       .  S
Zn148       O153   2.009       .  S
Zn148       O155   2.017       .  S
Zn148       O159   1.961       .  S
Zn149       O151   1.927       .  S
Zn149       O154   1.973       .  S
Zn149       O157   2.019       .  S
Zn149       O160   1.974       .  S
Zn150       O151   1.982   1_554  S
Zn150       O158   2.113       .  S
Zn150       O161   2.127       .  S
Zn150       O162   2.044       .  S
O152       Zn899   2.009   1_455  S
O152        C164   1.268       .  A
O153        C165   1.272       .  A
O154        C166   1.268       .  A
O155        C916   1.274   1_556  A
O156        C166   1.268   1_554  A
O157        C165   1.272       .  A
O158        C167   1.288       .  A
O159        C168   1.272       .  A
O160        C167   1.268   1_556  A
O161        C168   1.287   1_554  A
O162        C169   1.276       .  A
O163        C169   1.271       .  A
C164        C195   1.471       .  S
C164        O907   1.274   1_554  A
C165        C288   1.475       .  S
C166        C311   1.442       .  S
C169        C298   1.467       .  S
Zn170       O174   1.926       .  S
Zn170       O175   1.971       .  S
Zn170       O179   1.968       .  S
Zn170       O186   2.007       .  S
Zn171       O174   1.985       .  S
Zn171       O176   2.053       .  S
Zn171       O178   2.115       .  S
Zn171       O182   2.128       .  S
Zn172       O174   1.948       .  S
Zn172       O177   1.962       .  S
Zn172       O180   1.979       .  S
Zn172       O935   2.003       .  S
Zn173       O174   1.918       .  S
Zn173       O181   2.023       .  S
Zn173       O184   1.967       .  S
Zn173       O185   2.021       .  S
O175        C187   1.268       .  A
O176        C188   1.278       .  A
O177        C189   1.267       .  A
O178        C187   1.289       .  A
O179        C189   1.267       .  A
O180        C188   1.269       .  A
O181        C942   1.275       .  A
O182        C191   1.287       .  A
O183       Zn924   2.003   1_455  S
O183        C190   1.267       .  A
O184        C191   1.272       .  A
O185        C192   1.274       .  A
O186        C192   1.270       .  A
C188        C291   1.479       .  S
C189        C278   1.444       .  S
C190        C204   1.471       .  S
C190        O933   1.275       .  A
C192        C301   1.491       .  S
C193        C194   1.409       .  A
C193        C198   1.430       .  A
C194        C195   1.404       .  A
C194        H199   1.084       .  S
C195        C196   1.391       .  A
C196        C197   1.402       .  A
C196        H200   1.085       .  S
C197        C198   1.410       .  A
C197        C606   1.496   1_554  S
C198        H201   1.083       .  S
C202        C203   1.409       .  A
C202        C207   1.430       .  A
C203        C204   1.404       .  A
C203        H208   1.084       .  S
C204        C205   1.391       .  A
C205        C206   1.403       .  A
C205        H209   1.085       .  S
C206        C207   1.410       .  A
C206        C632   1.496       .  S
C207        H210   1.083       .  S
Zn211       O215   1.985   1_554  S
Zn211       O216   2.111       .  S
Zn211       O220   2.126       .  S
Zn211       O227   2.051       .  S
Zn212       O215   1.926       .  S
Zn212       O217   2.013       .  S
Zn212       O219   1.974       .  S
Zn212       O223   1.972       .  S
Zn213       O215   1.917       .  S
Zn213       O218   1.963       .  S
Zn213       O221   2.018       .  S
Zn213       O224   2.023       .  S
Zn214       O215   1.948   1_554  S
Zn214       O225   1.963       .  S
Zn214       O226   1.982       .  S
Zn214       O974   2.007   1_455  S
O216        C228   1.288       .  A
O217        C229   1.273       .  A
O218        C230   1.272   1_545  A
O219        C228   1.269   1_556  A
O220        C230   1.286   1_544  A
O221        C229   1.272       .  A
O222       Zn966   2.007       .  S
O222        C231   1.268       .  A
O223        C232   1.268       .  A
O224        C983   1.275   1_456  A
O225        C232   1.267   1_554  A
O226        C233   1.271       .  A
O227        C233   1.277       .  A
C229        C261   1.487       .  S
C230        C573   1.496   1_556  S
C231        O976   1.275   1_554  A
C232        C308   1.445       .  S
C233        C271   1.481       .  S
Zn234       O238   1.982       .  S
Zn234       O239   2.047       .  S
Zn234       O243   2.117       .  S
Zn234       O250   2.124       .  S
Zn235       O238   1.952       .  S
Zn235       O240   1.961       .  S
Zn235       O242   1.988       .  S
Zn235       O998   2.013   1_455  S
Zn236       O238   1.929       .  S
Zn236       O241   1.971       .  S
Zn236       O244   1.973       .  S
Zn236       O247   2.017       .  S
Zn237       O238   1.913       .  S
Zn237       O245   2.012       .  S
Zn237       O248   2.019       .  S
Zn237       O249   1.963       .  S
O239        C251   1.277       .  A
O240        C252   1.267       .  A
O241        C253   1.268       .  A
O242        C251   1.271       .  A
O243        C253   1.289       .  A
O244        C252   1.268       .  A
O245        C254   1.272       .  A
O246       Zn987   2.013       .  S
O246        C255   1.269       .  A
O247        C254   1.272       .  A
O248       C1007   1.274   1_455  A
O249        C256   1.272   1_545  A
O250        C256   1.286   1_545  A
C251        C258   1.468       .  S
C252        C281   1.441       .  S
C254        C268   1.475       .  S
C255       O1000   1.274       .  A
C256        C582   1.496       .  S
C257        C258   1.400       .  A
C257        C262   1.402       .  A
C257        H264   1.084       .  S
C258        C259   1.404       .  A
C259        C260   1.397       .  A
C259       Br266   1.920       .  S
C260        C261   1.408       .  A
C260        H265   1.083       .  S
C261        C262   1.418       .  A
C262       Br263   1.922       .  S
C267        C268   1.405       .  A
C267        C272   1.403       .  A
C267        H274   1.083       .  S
C268        C269   1.409       .  A
C269        C270   1.395       .  A
C269      Br1028   1.922       .  S
C270        C271   1.406       .  A
C270        H275   1.084       .  S
C271        C272   1.412       .  A
C272       Br273   1.920       .  S
Br276      C1021   1.922       .  S
C277        C282   1.388       .  A
C277       C1030   1.400   1_455  A
C277        H284   1.084       .  S
C278        C279   1.404       .  A
C278       C1029   1.400       .  A
C279        C280   1.389       .  A
C279       Br286   1.919       .  S
C280       C1033   1.399       .  A
C280        H285   1.084       .  S
C281        C282   1.402       .  A
C281       C1032   1.399   1_455  A
C282       Br283   1.918       .  S
C287        C288   1.401       .  A
C287        C292   1.395       .  A
C287        H294   1.084       .  S
C288        C289   1.410       .  A
C289        C290   1.402       .  A
C289       Br296   1.919       .  S
C290        C291   1.405       .  A
C290        H295   1.083       .  S
C291        C292   1.415       .  A
C292      Br1045   1.924       .  S
Br293      C1044   1.924   1_455  S
C297        C298   1.398       .  A
C297        C302   1.401       .  A
C297        H304   1.084       .  S
C298        C299   1.404       .  A
C299        C300   1.397       .  A
C299       Br306   1.920       .  S
C300        C301   1.410       .  A
C300        H305   1.083       .  S
C301        C302   1.421       .  A
C302       Br303   1.923       .  S
C307        C312   1.388       .  A
C307       C1060   1.400       .  A
C307        H314   1.084   1_556  S
C308        C309   1.404       .  A
C308       C1059   1.400   1_455  A
C309        C310   1.389       .  A
C309       Br316   1.919       .  S
C310       C1063   1.399   1_455  A
C310        H315   1.084       .  S
C311        C312   1.402       .  A
C311       C1062   1.399       .  A
C312       Br313   1.918   1_556  S
C317        C318   1.401       .  A
C317        C322   1.404       .  A
C317        H324   1.084       .  S
C318        C319   1.402       .  A
C319        C320   1.393       .  A
C319       Br326   1.921       .  S
C320        C321   1.410       .  A
C320        H325   1.083       .  S
C321        C322   1.418       .  A
C322       Br323   1.920       .  S
C327        C328   1.406       .  A
C327        C332   1.394       .  A
C327        H334   1.084       .  S
C328        C329   1.413       .  A
C329        C330   1.403       .  A
C329       Br336   1.920       .  S
C330        C331   1.404       .  A
C330        H335   1.083       .  S
C331        C332   1.408       .  A
C332       Br333   1.922       .  S
C337        C342   1.387       .  A
C337        C714   1.395       .  A
C337        H344   1.084       .  S
C338        C339   1.404       .  A
C338        C713   1.395   1_545  A
C339        C716   1.389   1_545  A
C339       Br346   1.918       .  S
C340        C341   1.398       .  A
C340        C715   1.389       .  A
C340        H345   1.084       .  S
C341        C342   1.406       .  A
C342       Br343   1.916       .  S
C347        C348   1.407       .  A
C347        C352   1.396       .  A
C347        H354   1.083       .  S
C348        C349   1.417       .  A
C349        C350   1.402       .  A
C349       Br356   1.921       .  S
C350        C351   1.400       .  A
C350        H355   1.084       .  S
C351        C352   1.405       .  A
C352       Br353   1.920       .  S
C357        C358   1.407       .  A
C357        C362   1.394       .  A
C357        H364   1.084       .  S
C358        C359   1.414       .  A
C359        C360   1.404       .  A
C359       Br366   1.920       .  S
C360        C361   1.404       .  A
C360        H365   1.083       .  S
C361        C362   1.406       .  A
C362       Br363   1.922       .  S
C367        C368   1.396       .  A
C367        C748   1.387       .  A
C367        H374   1.084       .  S
C368        C369   1.404       .  A
C369        C370   1.387       .  A
C369       Br376   1.916       .  S
C370        C747   1.396       .  A
C370        H375   1.084       .  S
C371        C372   1.404       .  A
C371        C746   1.396   1_545  A
C372        C743   1.387   1_545  A
C372       Br373   1.916       .  S
C377        C378   1.428       .  A
C377        C382   1.408       .  A
C377        C543   1.491       .  S
C378        C379   1.409       .  A
C378        H383   1.082       .  S
C379        C380   1.403       .  A
C379        C412   1.494   1_554  S
C380        C381   1.390       .  A
C380        H384   1.085       .  S
C381        C382   1.404       .  A
C381        C476   1.471       .  S
C382        H385   1.080       .  S
C386        C387   1.428       .  A
C386        C391   1.408       .  A
C386        C563   1.490       .  S
C387        C388   1.409       .  A
C387        H392   1.082       .  S
C388        C389   1.403       .  A
C388        C435   1.494       .  S
C389        C390   1.391       .  A
C389        H393   1.085       .  S
C390        C391   1.404       .  A
C390        C499   1.472       .  S
C391        H394   1.080       .  S
Zn395       O399   1.916       .  S
Zn395       O400   1.956       .  S
Zn395       O404   2.024       .  S
Zn395       O411   2.017       .  S
Zn396       O399   1.984   1_554  S
Zn396       O401   2.054       .  S
Zn396       O403   2.124       .  S
Zn396       O407   2.116       .  S
Zn397       O399   1.946   1_554  S
Zn397       O402   2.006       .  S
Zn397       O405   1.980       .  S
Zn397       O408   1.959       .  S
Zn398       O399   1.923       .  S
Zn398       O406   1.966       .  S
Zn398       O409   1.974       .  S
Zn398       O410   2.010       .  S
O400        C412   1.271       .  A
O401        C413   1.277       .  A
O402        C414   1.268       .  A
O403        C412   1.287   1_554  A
O404        C414   1.275   1_556  A
O405        C413   1.271       .  A
O406        C415   1.267       .  A
O407        C416   1.289       .  A
O408        C415   1.267   1_554  A
O409        C416   1.268   1_556  A
O410        C417   1.273       .  A
O411        C417   1.272       .  A
C413        C734   1.485       .  S
C414        C443   1.472       .  S
C415        C747   1.440       .  S
C416        C505   1.491       .  S
C417        C724   1.485       .  S
Zn418       O422   1.912       .  S
Zn418       O423   1.961       .  S
Zn418       O427   2.018       .  S
Zn418       O434   2.012       .  S
Zn419       O422   1.979       .  S
Zn419       O424   2.046       .  S
Zn419       O426   2.120       .  S
Zn419       O430   2.119       .  S
Zn420       O422   1.951       .  S
Zn420       O425   2.012       .  S
Zn420       O428   1.989       .  S
Zn420       O431   1.961       .  S
Zn421       O422   1.927       .  S
Zn421       O429   1.972       .  S
Zn421       O432   1.974       .  S
Zn421       O433   2.017       .  S
O423        C435   1.272       .  A
O424        C436   1.276       .  A
O425        C437   1.268       .  A
O426        C435   1.286       .  A
O427        C437   1.274       .  A
O428        C436   1.271       .  A
O429        C438   1.268       .  A
O430        C439   1.289       .  A
O431        C438   1.267       .  A
O432        C439   1.268       .  A
O433        C440   1.272       .  A
O434        C440   1.272       .  A
C436        C727   1.468       .  S
C437        C452   1.472       .  S
C438        C714   1.440       .  S
C439        C514   1.492       .  S
C440        C737   1.473       .  S
C441        C442   1.408       .  A
C441        C446   1.428       .  A
C441        C604   1.490       .  S
C442        C443   1.403       .  A
C442        H447   1.081       .  S
C443        C444   1.391       .  A
C444        C445   1.403       .  A
C444        H448   1.085       .  S
C445        C446   1.409       .  A
C445        C481   1.494   1_554  S
C446        H449   1.082       .  S
C450        C451   1.408       .  A
C450        C455   1.429       .  A
C450        C629   1.491       .  S
C451        C452   1.404       .  A
C451        H456   1.082       .  S
C452        C453   1.392       .  A
C453        C454   1.403       .  A
C453        H457   1.085       .  S
C454        C455   1.409       .  A
C454        C500   1.496       .  S
C455        H458   1.081       .  S
Zn459       O463   1.917       .  S
Zn459       O464   2.026       .  S
Zn459       O468   2.017       .  S
Zn459       O475   1.955       .  S
Zn460       O463   1.949   1_554  S
Zn460       O465   1.962       .  S
Zn460       O467   2.003       .  S
Zn460       O471   1.980       .  S
Zn461       O463   1.924       .  S
Zn461       O466   2.006       .  S
Zn461       O469   1.962       .  S
Zn461       O472   1.974       .  S
Zn462       O463   1.984   1_554  S
Zn462       O470   2.115       .  S
Zn462       O473   2.050       .  S
Zn462       O474   2.125       .  S
O464        C476   1.275   1_556  A
O465        C477   1.267   1_554  A
O466        C478   1.271       .  A
O467        C476   1.267       .  A
O468        C478   1.271       .  A
O469        C477   1.266       .  A
O470        C479   1.289       .  A
O471        C480   1.271       .  A
O472        C479   1.269   1_556  A
O473        C480   1.277       .  A
O474        C481   1.287   1_554  A
O475        C481   1.271       .  A
C477        C744   1.440       .  S
C478        C694   1.466       .  S
C479        C569   1.491       .  S
C480        C704   1.481       .  S
Zn482       O486   1.948       .  S
Zn482       O487   2.010       .  S
Zn482       O491   1.982       .  S
Zn482       O498   1.965       .  S
Zn483       O486   1.914       .  S
Zn483       O488   1.963       .  S
Zn483       O490   2.018       .  S
Zn483       O494   2.010       .  S
Zn484       O486   1.983       .  S
Zn484       O489   2.050       .  S
Zn484       O492   2.127       .  S
Zn484       O495   2.118       .  S
Zn485       O486   1.927       .  S
Zn485       O493   1.971       .  S
Zn485       O496   2.015       .  S
Zn485       O497   1.972       .  S
O487        C499   1.268       .  A
O488        C500   1.272       .  A
O489        C501   1.277       .  A
O490        C499   1.274       .  A
O491        C501   1.272       .  A
O492        C500   1.287       .  A
O493        C502   1.268       .  A
O494        C503   1.272       .  A
O495        C502   1.289       .  A
O496        C503   1.272       .  A
O497        C504   1.268       .  A
O498        C504   1.268       .  A
C501        C697   1.489       .  S
C502        C578   1.491       .  S
C503        C707   1.473       .  S
C504        C717   1.445       .  S
C505        C506   1.409       .  A
C505        C510   1.430       .  A
C506        C507   1.404       .  A
C506        H511   1.084       .  S
C507        C508   1.391       .  A
C507        C607   1.472       .  S
C509        C544   1.497   1_554  S
C510        H513   1.083       .  S
C514        C515   1.430       .  A
C514        C519   1.409       .  A
C515        H520   1.083       .  S
C516        C567   1.497       .  S
C517        C518   1.392       .  A
C518        C519   1.404       .  A
C518        C631   1.472       .  S
C519        H522   1.084       .  S
Zn523       O527   1.952   1_554  S
Zn523      O1280   2.009       .  S
Zn523       O532   1.967       .  S
Zn523       O539   1.990       .  S
Zn524       O527   1.913       .  S
Zn524       O529   2.009       .  S
Zn524       O531   2.017       .  S
Zn524       O535   1.961       .  S
Zn525       O527   1.927       .  S
Zn525       O530   1.973       .  S
Zn525       O533   2.019       .  S
Zn525       O536   1.974       .  S
Zn526       O527   1.982   1_554  S
Zn526       O534   2.113       .  S
Zn526       O537   2.127       .  S
Zn526       O538   2.044       .  S
O528      Zn1275   2.009   1_455  S
O528        C540   1.268       .  A
O529        C541   1.272       .  A
O530        C542   1.268       .  A
O531       C1292   1.274   1_556  A
O532        C542   1.268   1_554  A
O533        C541   1.272       .  A
O534        C543   1.288       .  A
O535        C544   1.272       .  A
O536        C543   1.268   1_556  A
O537        C544   1.287   1_554  A
O538        C545   1.276       .  A
O539        C545   1.271       .  A
C540        C571   1.471       .  S
C540       O1283   1.274   1_554  A
C541        C664   1.475       .  S
C542        C687   1.442       .  S
C545        C674   1.467       .  S
Zn546       O550   1.926       .  S
Zn546       O551   1.971       .  S
Zn546       O555   1.968       .  S
Zn546       O562   2.007       .  S
Zn547       O550   1.985       .  S
Zn547       O552   2.053       .  S
Zn547       O554   2.115       .  S
Zn547       O558   2.128       .  S
Zn548       O550   1.948       .  S
Zn548       O553   1.962       .  S
Zn548       O556   1.979       .  S
Zn548      O1311   2.003       .  S
Zn549       O550   1.918       .  S
Zn549       O557   2.023       .  S
Zn549       O560   1.967       .  S
Zn549       O561   2.021       .  S
O551        C563   1.268       .  A
O552        C564   1.278       .  A
O553        C565   1.267       .  A
O554        C563   1.289       .  A
O555        C565   1.267       .  A
O556        C564   1.269       .  A
O557       C1318   1.275       .  A
O558        C567   1.287       .  A
O559      Zn1300   2.003   1_455  S
O559        C566   1.267       .  A
O560        C567   1.272       .  A
O561        C568   1.274       .  A
O562        C568   1.270       .  A
C564        C667   1.479       .  S
C565        C654   1.444       .  S
C566        C580   1.471       .  S
C566       O1309   1.275       .  A
C568        C677   1.491       .  S
C569        C570   1.409       .  A
C569        C574   1.430       .  A
C570        C571   1.404       .  A
C570        H575   1.084       .  S
C571        C572   1.391       .  A
C572        C573   1.402       .  A
C572        H576   1.085       .  S
C573        C574   1.410       .  A
C574        H577   1.083       .  S
C578        C579   1.409       .  A
C578        C583   1.430       .  A
C579        C580   1.404       .  A
C579        H584   1.084       .  S
C580        C581   1.391       .  A
C581        C582   1.403       .  A
C581        H585   1.085       .  S
C582        C583   1.410       .  A
C583        H586   1.083       .  S
Zn587       O591   1.985   1_554  S
Zn587       O592   2.111       .  S
Zn587       O596   2.126       .  S
Zn587       O603   2.051       .  S
Zn588       O591   1.926       .  S
Zn588       O593   2.013       .  S
Zn588       O595   1.974       .  S
Zn588       O599   1.972       .  S
Zn589       O591   1.917       .  S
Zn589       O594   1.963       .  S
Zn589       O597   2.018       .  S
Zn589       O600   2.023       .  S
Zn590       O591   1.948   1_554  S
Zn590      O1350   2.007   1_455  S
Zn590       O601   1.963       .  S
Zn590       O602   1.982       .  S
O592        C604   1.288       .  A
O593        C605   1.273       .  A
O594        C606   1.272       .  A
O595        C604   1.269   1_556  A
O596        C606   1.286   1_554  A
O597        C605   1.272       .  A
O598      Zn1342   2.007       .  S
O598        C607   1.268       .  A
O599        C608   1.268       .  A
O600       C1359   1.275   1_456  A
O601        C608   1.267   1_554  A
O602        C609   1.271       .  A
O603        C609   1.277       .  A
C605        C637   1.487       .  S
C607       O1352   1.275   1_554  A
C608        C684   1.445       .  S
C609        C647   1.481       .  S
Zn610       O614   1.982       .  S
Zn610       O615   2.047       .  S
Zn610       O619   2.117       .  S
Zn610       O626   2.124       .  S
Zn611       O614   1.952       .  S
Zn611       O616   1.961       .  S
Zn611       O618   1.988       .  S
Zn611      O1374   2.013   1_455  S
Zn612       O614   1.929       .  S
Zn612       O617   1.971       .  S
Zn612       O620   1.973       .  S
Zn612       O623   2.017       .  S
Zn613       O614   1.913       .  S
Zn613       O621   2.012       .  S
Zn613       O624   2.019       .  S
Zn613       O625   1.963       .  S
O615        C627   1.277       .  A
O616        C628   1.267       .  A
O617        C629   1.268       .  A
O618        C627   1.271       .  A
O619        C629   1.289       .  A
O620        C628   1.268       .  A
O621        C630   1.272       .  A
O622      Zn1363   2.013       .  S
O622        C631   1.269       .  A
O623        C630   1.272       .  A
O624       C1383   1.274   1_455  A
O625        C632   1.272       .  A
O626        C632   1.286       .  A
C627        C634   1.468       .  S
C628        C657   1.441       .  S
C630        C644   1.475       .  S
C631       O1376   1.274       .  A
C633        C634   1.400       .  A
C633        C638   1.402       .  A
C633        H640   1.084       .  S
C634        C635   1.404       .  A
C635        C636   1.397       .  A
C635       Br642   1.920       .  S
C636        C637   1.408       .  A
C636        H641   1.083       .  S
C637        C638   1.418       .  A
C638       Br639   1.922       .  S
C643        C644   1.405       .  A
C643        C648   1.403       .  A
C643        H650   1.083       .  S
C644        C645   1.409       .  A
C645        C646   1.395       .  A
C645      Br1404   1.922       .  S
C646        C647   1.406       .  A
C646        H651   1.084       .  S
C647        C648   1.412       .  A
C648       Br649   1.920       .  S
Br652      C1397   1.922       .  S
C653       C1406   1.400   1_455  A
C653        C658   1.388       .  A
C653        H660   1.084       .  S
C654       C1405   1.400       .  A
C654        C655   1.404       .  A
C655        C656   1.389       .  A
C655       Br662   1.919       .  S
C656       C1409   1.399       .  A
C656        H661   1.084       .  S
C657       C1408   1.399   1_455  A
C657        C658   1.402       .  A
C658       Br659   1.918       .  S
C663        C664   1.401       .  A
C663        C668   1.395       .  A
C663        H670   1.084       .  S
C664        C665   1.410       .  A
C665        C666   1.402       .  A
C665       Br672   1.919       .  S
C666        C667   1.405       .  A
C666        H671   1.083       .  S
C667        C668   1.415       .  A
C668      Br1421   1.924       .  S
Br669      C1420   1.924   1_455  S
C673        C674   1.398       .  A
C673        C678   1.401       .  A
C673        H680   1.084       .  S
C674        C675   1.404       .  A
C675        C676   1.397       .  A
C675       Br682   1.920       .  S
C676        C677   1.410       .  A
C676        H681   1.083       .  S
C677        C678   1.421       .  A
C678       Br679   1.923       .  S
C683       C1436   1.400       .  A
C683        C688   1.388       .  A
C683        H690   1.084   1_556  S
C684       C1435   1.400   1_455  A
C684        C685   1.404       .  A
C685        C686   1.389       .  A
C685       Br692   1.919       .  S
C686       C1439   1.399   1_455  A
C686        H691   1.084       .  S
C687       C1438   1.399       .  A
C687        C688   1.402       .  A
C688       Br689   1.918   1_556  S
C693        C694   1.401       .  A
C693        C698   1.404       .  A
C693        H700   1.084       .  S
C694        C695   1.402       .  A
C695        C696   1.393       .  A
C695       Br702   1.921       .  S
C696        C697   1.410       .  A
C696        H701   1.083       .  S
C697        C698   1.418       .  A
C698       Br699   1.920       .  S
C703        C704   1.406       .  A
C703        C708   1.394       .  A
C703        H710   1.084       .  S
C704        C705   1.413       .  A
C705        C706   1.403       .  A
C705       Br712   1.920       .  S
C706        C707   1.404       .  A
C706        H711   1.083       .  S
C707        C708   1.408       .  A
C708       Br709   1.922       .  S
C713        C718   1.387       .  A
C713        H720   1.084       .  S
C714        C715   1.404       .  A
C715       Br722   1.918       .  S
C716        C717   1.398       .  A
C716        H721   1.084       .  S
C717        C718   1.406       .  A
C718       Br719   1.916       .  S
C723        C724   1.407       .  A
C723        C728   1.396       .  A
C723        H730   1.083       .  S
C724        C725   1.417       .  A
C725        C726   1.402       .  A
C725       Br732   1.921       .  S
C726        C727   1.400       .  A
C726        H731   1.084       .  S
C727        C728   1.405       .  A
C728       Br729   1.920       .  S
C733        C734   1.407       .  A
C733        C738   1.394       .  A
C733        H740   1.084       .  S
C734        C735   1.414       .  A
C735        C736   1.404       .  A
C735       Br742   1.920       .  S
C736        C737   1.404       .  A
C736        H741   1.083       .  S
C737        C738   1.406       .  A
C738       Br739   1.922       .  S
C743        C744   1.396       .  A
C743        H750   1.084       .  S
C744        C745   1.404       .  A
C745        C746   1.387       .  A
C745       Br752   1.916       .  S
C746        H751   1.084       .  S
C747        C748   1.404       .  A
C748       Br749   1.916       .  S
C753        C754   1.428       .  A
C753        C758   1.408       .  A
C753        C919   1.491       .  S
C754        C755   1.409       .  A
C754        H759   1.082       .  S
C755        C756   1.403       .  A
C755        C788   1.494   1_554  S
C756        C757   1.390       .  A
C756        H760   1.085       .  S
C757        C758   1.404       .  A
C757        C852   1.471       .  S
C758        H761   1.080       .  S
C762        C763   1.428       .  A
C762        C767   1.408       .  A
C762        C939   1.490       .  S
C763        C764   1.409       .  A
C763        H768   1.082       .  S
C764        C765   1.403       .  A
C764        C811   1.494       .  S
C765        C766   1.391       .  A
C765        H769   1.085       .  S
C766        C767   1.404       .  A
C766        C875   1.472       .  S
C767        H770   1.080       .  S
Zn771       O775   1.916       .  S
Zn771       O776   1.956       .  S
Zn771       O780   2.024       .  S
Zn771       O787   2.017       .  S
Zn772       O775   1.984   1_554  S
Zn772       O777   2.054       .  S
Zn772       O779   2.124       .  S
Zn772       O783   2.116       .  S
Zn773       O775   1.946   1_554  S
Zn773       O778   2.006       .  S
Zn773       O781   1.980       .  S
Zn773       O784   1.959       .  S
Zn774       O775   1.923       .  S
Zn774       O782   1.966       .  S
Zn774       O785   1.974       .  S
Zn774       O786   2.010       .  S
O776        C788   1.271       .  A
O777        C789   1.277       .  A
O778        C790   1.268       .  A
O779        C788   1.287   1_554  A
O780        C790   1.275   1_556  A
O781        C789   1.271       .  A
O782        C791   1.267       .  A
O783        C792   1.289       .  A
O784        C791   1.267   1_554  A
O785        C792   1.268   1_556  A
O786        C793   1.273       .  A
O787        C793   1.272       .  A
C789       C1110   1.485       .  S
C790        C819   1.472       .  S
C791       C1123   1.440       .  S
C792        C881   1.491       .  S
C793       C1100   1.485       .  S
Zn794       O798   1.912       .  S
Zn794       O799   1.961       .  S
Zn794       O803   2.018       .  S
Zn794       O810   2.012       .  S
Zn795       O798   1.979       .  S
Zn795       O800   2.046       .  S
Zn795       O802   2.120       .  S
Zn795       O806   2.119       .  S
Zn796       O798   1.951       .  S
Zn796       O801   2.012       .  S
Zn796       O804   1.989       .  S
Zn796       O807   1.961       .  S
Zn797       O798   1.927       .  S
Zn797       O805   1.972       .  S
Zn797       O808   1.974       .  S
Zn797       O809   2.017       .  S
O799        C811   1.272       .  A
O800        C812   1.276       .  A
O801        C813   1.268       .  A
O802        C811   1.286       .  A
O803        C813   1.274       .  A
O804        C812   1.271       .  A
O805        C814   1.268       .  A
O806        C815   1.289       .  A
O807        C814   1.267       .  A
O808        C815   1.268       .  A
O809        C816   1.272       .  A
O810        C816   1.272       .  A
C812       C1103   1.468       .  S
C813        C828   1.472       .  S
C814       C1090   1.440       .  S
C815        C890   1.492       .  S
C816       C1113   1.473       .  S
C817        C818   1.408       .  A
C817        C822   1.428       .  A
C817        C980   1.490       .  S
C818        C819   1.403       .  A
C818        H823   1.081       .  S
C819        C820   1.391       .  A
C820        C821   1.403       .  A
C820        H824   1.085       .  S
C821        C822   1.409       .  A
C821        C857   1.494   1_554  S
C822        H825   1.082       .  S
C826        C827   1.408       .  A
C826        C831   1.429       .  A
C826       C1005   1.491       .  S
C827        C828   1.404       .  A
C827        H832   1.082       .  S
C828        C829   1.392       .  A
C829        C830   1.403       .  A
C829        H833   1.085       .  S
C830        C831   1.409       .  A
C830        C876   1.496       .  S
C831        H834   1.081       .  S
Zn835       O839   1.917       .  S
Zn835       O840   2.026       .  S
Zn835       O844   2.017       .  S
Zn835       O851   1.955       .  S
Zn836       O839   1.949   1_554  S
Zn836       O841   1.962       .  S
Zn836       O843   2.003       .  S
Zn836       O847   1.980       .  S
Zn837       O839   1.924       .  S
Zn837       O842   2.006       .  S
Zn837       O845   1.962       .  S
Zn837       O848   1.974       .  S
Zn838       O839   1.984   1_554  S
Zn838       O846   2.115       .  S
Zn838       O849   2.050       .  S
Zn838       O850   2.125       .  S
O840        C852   1.275   1_556  A
O841        C853   1.267   1_554  A
O842        C854   1.271       .  A
O843        C852   1.267       .  A
O844        C854   1.271       .  A
O845        C853   1.266       .  A
O846        C855   1.289       .  A
O847        C856   1.271       .  A
O848        C855   1.269   1_556  A
O849        C856   1.277       .  A
O850        C857   1.287   1_554  A
O851        C857   1.271       .  A
C853       C1120   1.440       .  S
C854       C1070   1.466       .  S
C855        C945   1.491       .  S
C856       C1080   1.481       .  S
Zn858       O862   1.948       .  S
Zn858       O863   2.010       .  S
Zn858       O867   1.982       .  S
Zn858       O874   1.965       .  S
Zn859       O862   1.914       .  S
Zn859       O864   1.963       .  S
Zn859       O866   2.018       .  S
Zn859       O870   2.010       .  S
Zn860       O862   1.983       .  S
Zn860       O865   2.050       .  S
Zn860       O868   2.127       .  S
Zn860       O871   2.118       .  S
Zn861       O862   1.927       .  S
Zn861       O869   1.971       .  S
Zn861       O872   2.015       .  S
Zn861       O873   1.972       .  S
O863        C875   1.268       .  A
O864        C876   1.272       .  A
O865        C877   1.277       .  A
O866        C875   1.274       .  A
O867        C877   1.272       .  A
O868        C876   1.287       .  A
O869        C878   1.268       .  A
O870        C879   1.272       .  A
O871        C878   1.289       .  A
O872        C879   1.272       .  A
O873        C880   1.268       .  A
O874        C880   1.268       .  A
C877       C1073   1.489       .  S
C878        C954   1.491       .  S
C879       C1083   1.473       .  S
C880       C1093   1.445       .  S
C881        C882   1.409       .  A
C881        C886   1.430       .  A
C882        C883   1.404       .  A
C882        H887   1.084       .  S
C883        C884   1.391       .  A
C883        C983   1.472       .  S
C884       C1261   1.403   1_545  A
C884       H1264   1.085   1_545  S
C885       C1260   1.403       .  A
C885       C1262   1.410       .  A
C885        C920   1.497   1_554  S
C886       C1261   1.410   1_545  A
C886        H889   1.083       .  S
H888       C1260   1.085       .  S
C890        C891   1.430       .  A
C890        C895   1.409       .  A
C891       C1268   1.411   1_545  A
C891        H896   1.083       .  S
C892       C1267   1.411       .  A
C892       C1269   1.403       .  A
C892        C943   1.497       .  S
C893       C1268   1.403   1_545  A
C893        C894   1.392       .  A
C893       H1273   1.085   1_545  S
C894        C895   1.404       .  A
C894       C1007   1.472       .  S
C895        H898   1.084       .  S
H897       C1269   1.085       .  S
Zn899       O903   1.952   1_554  S
Zn899       O908   1.967       .  S
Zn899       O915   1.990       .  S
Zn900       O903   1.913       .  S
Zn900       O905   2.009       .  S
Zn900       O907   2.017   1_655  S
Zn900       O911   1.961       .  S
Zn901       O903   1.927       .  S
Zn901       O906   1.973       .  S
Zn901       O909   2.019       .  S
Zn901       O912   1.974       .  S
Zn902       O903   1.982   1_554  S
Zn902       O910   2.113       .  S
Zn902       O913   2.127       .  S
Zn902       O914   2.044       .  S
O904        C916   1.268       .  A
O905        C917   1.272       .  A
O906        C918   1.268       .  A
O908        C918   1.268   1_554  A
O909        C917   1.272       .  A
O910        C919   1.288       .  A
O911        C920   1.272       .  A
O912        C919   1.268   1_556  A
O913        C920   1.287   1_554  A
O914        C921   1.276       .  A
O915        C921   1.271       .  A
C916        C947   1.471       .  S
C917       C1040   1.475       .  S
C918       C1063   1.442       .  S
C921       C1050   1.467       .  S
Zn922       O926   1.926       .  S
Zn922       O927   1.971       .  S
Zn922       O931   1.968       .  S
Zn922       O938   2.007       .  S
Zn923       O926   1.985       .  S
Zn923       O928   2.053       .  S
Zn923       O930   2.115       .  S
Zn923       O934   2.128       .  S
Zn924       O926   1.948       .  S
Zn924       O929   1.962       .  S
Zn924       O932   1.979       .  S
Zn925       O926   1.918       .  S
Zn925       O933   2.023   1_655  S
Zn925       O936   1.967       .  S
Zn925       O937   2.021       .  S
O927        C939   1.268       .  A
O928        C940   1.278       .  A
O929        C941   1.267       .  A
O930        C939   1.289       .  A
O931        C941   1.267       .  A
O932        C940   1.269       .  A
O934        C943   1.287       .  A
O935        C942   1.267       .  A
O936        C943   1.272       .  A
O937        C944   1.274       .  A
O938        C944   1.270       .  A
C940       C1043   1.479       .  S
C941       C1030   1.444       .  S
C942        C956   1.471       .  S
C944       C1053   1.491       .  S
C945        C946   1.409       .  A
C945        C950   1.430       .  A
C946        C947   1.404       .  A
C946        H951   1.084       .  S
C947        C948   1.391       .  A
C948        C949   1.402       .  A
C948        H952   1.085       .  S
C949        C950   1.410       .  A
C949       C1358   1.496   1_554  S
C950        H953   1.083       .  S
C954        C955   1.409       .  A
C954        C959   1.430       .  A
C955        C956   1.404       .  A
C955        H960   1.084       .  S
C956        C957   1.391       .  A
C957        C958   1.403       .  A
C957        H961   1.085       .  S
C958        C959   1.410       .  A
C958       C1384   1.496       .  S
C959        H962   1.083       .  S
Zn963       O967   1.985   1_554  S
Zn963       O968   2.111       .  S
Zn963       O972   2.126       .  S
Zn963       O979   2.051       .  S
Zn964       O967   1.926       .  S
Zn964       O969   2.013       .  S
Zn964       O971   1.974       .  S
Zn964       O975   1.972       .  S
Zn965       O967   1.917       .  S
Zn965       O970   1.963       .  S
Zn965       O973   2.018       .  S
Zn965       O976   2.023       .  S
Zn966       O967   1.948   1_554  S
Zn966       O977   1.963       .  S
Zn966       O978   1.982       .  S
O968        C980   1.288       .  A
O969        C981   1.273       .  A
O970        C982   1.272   1_545  A
O971        C980   1.269   1_556  A
O972        C982   1.286   1_544  A
O973        C981   1.272       .  A
O974        C983   1.268       .  A
O975        C984   1.268       .  A
O977        C984   1.267   1_554  A
O978        C985   1.271       .  A
O979        C985   1.277       .  A
C981       C1013   1.487       .  S
C982       C1325   1.496   1_556  S
C984       C1060   1.445       .  S
C985       C1023   1.481       .  S
Zn986       O990   1.982       .  S
Zn986       O991   2.047       .  S
Zn986       O995   2.117       .  S
Zn986      O1002   2.124       .  S
Zn987       O990   1.952       .  S
Zn987       O992   1.961       .  S
Zn987       O994   1.988       .  S
Zn988       O990   1.929       .  S
Zn988       O993   1.971       .  S
Zn988       O996   1.973       .  S
Zn988       O999   2.017       .  S
Zn989       O990   1.913       .  S
Zn989       O997   2.012       .  S
Zn989      O1000   2.019       .  S
Zn989      O1001   1.963       .  S
O991       C1003   1.277       .  A
O992       C1004   1.267       .  A
O993       C1005   1.268       .  A
O994       C1003   1.271       .  A
O995       C1005   1.289       .  A
O996       C1004   1.268       .  A
O997       C1006   1.272       .  A
O998       C1007   1.269       .  A
O999       C1006   1.272       .  A
O1001      C1008   1.272   1_545  A
O1002      C1008   1.286   1_545  A
C1003      C1010   1.468       .  S
C1004      C1033   1.441       .  S
C1006      C1020   1.475       .  S
C1008      C1334   1.496       .  S
C1009      C1010   1.400       .  A
C1009      C1014   1.402       .  A
C1009      H1016   1.084       .  S
C1010      C1011   1.404       .  A
C1011      C1012   1.397       .  A
C1011     Br1018   1.920       .  S
C1012      C1013   1.408       .  A
C1012      H1017   1.083       .  S
C1013      C1014   1.418       .  A
C1014     Br1015   1.922       .  S
C1019      C1020   1.405       .  A
C1019      C1024   1.403       .  A
C1019      H1026   1.083       .  S
C1020      C1021   1.409       .  A
C1021      C1022   1.395       .  A
C1022      C1023   1.406       .  A
C1022      H1027   1.084       .  S
C1023      C1024   1.412       .  A
C1024     Br1025   1.920       .  S
C1029      C1034   1.388       .  A
C1029      H1036   1.084       .  S
C1030      C1031   1.404       .  A
C1031      C1032   1.389       .  A
C1031     Br1038   1.919       .  S
C1032      H1037   1.084       .  S
C1033      C1034   1.402       .  A
C1034     Br1035   1.918       .  S
C1039      C1040   1.401       .  A
C1039      C1044   1.395       .  A
C1039      H1046   1.084       .  S
C1040      C1041   1.410       .  A
C1041      C1042   1.402       .  A
C1041     Br1048   1.919       .  S
C1042      C1043   1.405       .  A
C1042      H1047   1.083       .  S
C1043      C1044   1.415       .  A
C1049      C1050   1.398       .  A
C1049      C1054   1.401       .  A
C1049      H1056   1.084       .  S
C1050      C1051   1.404       .  A
C1051      C1052   1.397       .  A
C1051     Br1058   1.920       .  S
C1052      C1053   1.410       .  A
C1052      H1057   1.083       .  S
C1053      C1054   1.421       .  A
C1054     Br1055   1.923       .  S
C1059      C1064   1.388       .  A
C1059      H1066   1.084   1_556  S
C1060      C1061   1.404       .  A
C1061      C1062   1.389       .  A
C1061     Br1068   1.919       .  S
C1062      H1067   1.084       .  S
C1063      C1064   1.402       .  A
C1064     Br1065   1.918   1_556  S
C1069      C1070   1.401       .  A
C1069      C1074   1.404       .  A
C1069      H1076   1.084       .  S
C1070      C1071   1.402       .  A
C1071      C1072   1.393       .  A
C1071     Br1078   1.921       .  S
C1072      C1073   1.410       .  A
C1072      H1077   1.083       .  S
C1073      C1074   1.418       .  A
C1074     Br1075   1.920       .  S
C1079      C1080   1.406       .  A
C1079      C1084   1.394       .  A
C1079      H1086   1.084       .  S
C1080      C1081   1.413       .  A
C1081      C1082   1.403       .  A
C1081     Br1088   1.920       .  S
C1082      C1083   1.404       .  A
C1082      H1087   1.083       .  S
C1083      C1084   1.408       .  A
C1084     Br1085   1.922       .  S
C1089      C1466   1.395       .  A
C1089      C1094   1.387       .  A
C1089      H1096   1.084       .  S
C1090      C1465   1.395   1_545  A
C1090      C1091   1.404       .  A
C1091      C1468   1.389   1_545  A
C1091     Br1098   1.918       .  S
C1092      C1467   1.389       .  A
C1092      C1093   1.398       .  A
C1092      H1097   1.084       .  S
C1093      C1094   1.406       .  A
C1094     Br1095   1.916       .  S
C1099      C1100   1.407       .  A
C1099      C1104   1.396       .  A
C1099      H1106   1.083       .  S
C1100      C1101   1.417       .  A
C1101      C1102   1.402       .  A
C1101     Br1108   1.921       .  S
C1102      C1103   1.400       .  A
C1102      H1107   1.084       .  S
C1103      C1104   1.405       .  A
C1104     Br1105   1.920       .  S
C1109      C1110   1.407       .  A
C1109      C1114   1.394       .  A
C1109      H1116   1.084       .  S
C1110      C1111   1.414       .  A
C1111      C1112   1.404       .  A
C1111     Br1118   1.920       .  S
C1112      C1113   1.404       .  A
C1112      H1117   1.083       .  S
C1113      C1114   1.406       .  A
C1114     Br1115   1.922       .  S
C1119      C1120   1.396       .  A
C1119      C1500   1.387       .  A
C1119      H1126   1.084       .  S
C1120      C1121   1.404       .  A
C1121      C1122   1.387       .  A
C1121     Br1128   1.916       .  S
C1122      C1499   1.396       .  A
C1122      H1127   1.084       .  S
C1123      C1498   1.396   1_545  A
C1123      C1124   1.404       .  A
C1124      C1495   1.387   1_545  A
C1124     Br1125   1.916       .  S
C1129      C1130   1.428       .  A
C1129      C1134   1.408       .  A
C1129      C1295   1.491       .  S
C1130      C1131   1.409       .  A
C1130      H1135   1.082       .  S
C1131      C1132   1.403       .  A
C1131      C1164   1.494   1_554  S
C1132      C1133   1.390       .  A
C1132      H1136   1.085       .  S
C1133      C1134   1.404       .  A
C1133      C1228   1.471       .  S
C1134      H1137   1.080       .  S
C1138      C1139   1.428       .  A
C1138      C1143   1.408       .  A
C1138      C1315   1.490       .  S
C1139      C1140   1.409       .  A
C1139      H1144   1.082       .  S
C1140      C1141   1.403       .  A
C1140      C1187   1.494       .  S
C1141      C1142   1.391       .  A
C1141      H1145   1.085       .  S
C1142      C1143   1.404       .  A
C1142      C1251   1.472       .  S
C1143      H1146   1.080       .  S
Zn1147     O1151   1.916       .  S
Zn1147     O1152   1.956       .  S
Zn1147     O1156   2.024       .  S
Zn1147     O1163   2.017       .  S
Zn1148     O1151   1.984   1_554  S
Zn1148     O1153   2.054       .  S
Zn1148     O1155   2.124       .  S
Zn1148     O1159   2.116       .  S
Zn1149     O1151   1.946   1_554  S
Zn1149     O1154   2.006       .  S
Zn1149     O1157   1.980       .  S
Zn1149     O1160   1.959       .  S
Zn1150     O1151   1.923       .  S
Zn1150     O1158   1.966       .  S
Zn1150     O1161   1.974       .  S
Zn1150     O1162   2.010       .  S
O1152      C1164   1.271       .  A
O1153      C1165   1.277       .  A
O1154      C1166   1.268       .  A
O1155      C1164   1.287   1_554  A
O1156      C1166   1.275   1_556  A
O1157      C1165   1.271       .  A
O1158      C1167   1.267       .  A
O1159      C1168   1.289       .  A
O1160      C1167   1.267   1_554  A
O1161      C1168   1.268   1_556  A
O1162      C1169   1.273       .  A
O1163      C1169   1.272       .  A
C1165      C1486   1.485       .  S
C1166      C1195   1.472       .  S
C1167      C1499   1.440       .  S
C1168      C1257   1.491       .  S
C1169      C1476   1.485       .  S
Zn1170     O1174   1.912       .  S
Zn1170     O1175   1.961       .  S
Zn1170     O1179   2.018       .  S
Zn1170     O1186   2.012       .  S
Zn1171     O1174   1.979       .  S
Zn1171     O1176   2.046       .  S
Zn1171     O1178   2.120       .  S
Zn1171     O1182   2.119       .  S
Zn1172     O1174   1.951       .  S
Zn1172     O1177   2.012       .  S
Zn1172     O1180   1.989       .  S
Zn1172     O1183   1.961       .  S
Zn1173     O1174   1.927       .  S
Zn1173     O1181   1.972       .  S
Zn1173     O1184   1.974       .  S
Zn1173     O1185   2.017       .  S
O1175      C1187   1.272       .  A
O1176      C1188   1.276       .  A
O1177      C1189   1.268       .  A
O1178      C1187   1.286       .  A
O1179      C1189   1.274       .  A
O1180      C1188   1.271       .  A
O1181      C1190   1.268       .  A
O1182      C1191   1.289       .  A
O1183      C1190   1.267       .  A
O1184      C1191   1.268       .  A
O1185      C1192   1.272       .  A
O1186      C1192   1.272       .  A
C1188      C1479   1.468       .  S
C1189      C1204   1.472       .  S
C1190      C1466   1.440       .  S
C1191      C1266   1.492       .  S
C1192      C1489   1.473       .  S
C1193      C1194   1.408       .  A
C1193      C1198   1.428       .  A
C1193      C1356   1.490       .  S
C1194      C1195   1.403       .  A
C1194      H1199   1.081       .  S
C1195      C1196   1.391       .  A
C1196      C1197   1.403       .  A
C1196      H1200   1.085       .  S
C1197      C1198   1.409       .  A
C1197      C1233   1.494   1_554  S
C1198      H1201   1.082       .  S
C1202      C1203   1.408       .  A
C1202      C1207   1.429       .  A
C1202      C1381   1.491       .  S
C1203      C1204   1.404       .  A
C1203      H1208   1.082       .  S
C1204      C1205   1.392       .  A
C1205      C1206   1.403       .  A
C1205      H1209   1.085       .  S
C1206      C1207   1.409       .  A
C1206      C1252   1.496       .  S
C1207      H1210   1.081       .  S
Zn1211     O1215   1.917       .  S
Zn1211     O1216   2.026       .  S
Zn1211     O1220   2.017       .  S
Zn1211     O1227   1.955       .  S
Zn1212     O1215   1.949   1_554  S
Zn1212     O1217   1.962       .  S
Zn1212     O1219   2.003       .  S
Zn1212     O1223   1.980       .  S
Zn1213     O1215   1.924       .  S
Zn1213     O1218   2.006       .  S
Zn1213     O1221   1.962       .  S
Zn1213     O1224   1.974       .  S
Zn1214     O1215   1.984   1_554  S
Zn1214     O1222   2.115       .  S
Zn1214     O1225   2.050       .  S
Zn1214     O1226   2.125       .  S
O1216      C1228   1.275   1_556  A
O1217      C1229   1.267   1_554  A
O1218      C1230   1.271       .  A
O1219      C1228   1.267       .  A
O1220      C1230   1.271       .  A
O1221      C1229   1.266       .  A
O1222      C1231   1.289       .  A
O1223      C1232   1.271       .  A
O1224      C1231   1.269   1_556  A
O1225      C1232   1.277       .  A
O1226      C1233   1.287   1_554  A
O1227      C1233   1.271       .  A
C1229      C1496   1.440       .  S
C1230      C1446   1.466       .  S
C1231      C1321   1.491       .  S
C1232      C1456   1.481       .  S
Zn1234     O1238   1.948       .  S
Zn1234     O1239   2.010       .  S
Zn1234     O1243   1.982       .  S
Zn1234     O1250   1.965       .  S
Zn1235     O1238   1.914       .  S
Zn1235     O1240   1.963       .  S
Zn1235     O1242   2.018       .  S
Zn1235     O1246   2.010       .  S
Zn1236     O1238   1.983       .  S
Zn1236     O1241   2.050       .  S
Zn1236     O1244   2.127       .  S
Zn1236     O1247   2.118       .  S
Zn1237     O1238   1.927       .  S
Zn1237     O1245   1.971       .  S
Zn1237     O1248   2.015       .  S
Zn1237     O1249   1.972       .  S
O1239      C1251   1.268       .  A
O1240      C1252   1.272       .  A
O1241      C1253   1.277       .  A
O1242      C1251   1.274       .  A
O1243      C1253   1.272       .  A
O1244      C1252   1.287       .  A
O1245      C1254   1.268       .  A
O1246      C1255   1.272       .  A
O1247      C1254   1.289       .  A
O1248      C1255   1.272       .  A
O1249      C1256   1.268       .  A
O1250      C1256   1.268       .  A
C1253      C1449   1.489       .  S
C1254      C1330   1.491       .  S
C1255      C1459   1.473       .  S
C1256      C1469   1.445       .  S
C1257      C1258   1.409       .  A
C1257      C1262   1.430       .  A
C1258      C1259   1.404       .  A
C1258      H1263   1.084       .  S
C1259      C1260   1.391       .  A
C1259      C1359   1.472       .  S
C1261      C1296   1.497   1_554  S
C1262      H1265   1.083       .  S
C1266      C1267   1.430       .  A
C1266      C1271   1.409       .  A
C1267      H1272   1.083       .  S
C1268      C1319   1.497       .  S
C1269      C1270   1.392       .  A
C1270      C1271   1.404       .  A
C1270      C1383   1.472       .  S
C1271      H1274   1.084       .  S
Zn1275     O1279   1.952   1_554  S
Zn1275     O1284   1.967       .  S
Zn1275     O1291   1.990       .  S
Zn1276     O1279   1.913       .  S
Zn1276     O1281   2.009       .  S
Zn1276     O1283   2.017   1_655  S
Zn1276     O1287   1.961       .  S
Zn1277     O1279   1.927       .  S
Zn1277     O1282   1.973       .  S
Zn1277     O1285   2.019       .  S
Zn1277     O1288   1.974       .  S
Zn1278     O1279   1.982   1_554  S
Zn1278     O1286   2.113       .  S
Zn1278     O1289   2.127       .  S
Zn1278     O1290   2.044       .  S
O1280      C1292   1.268       .  A
O1281      C1293   1.272       .  A
O1282      C1294   1.268       .  A
O1284      C1294   1.268   1_554  A
O1285      C1293   1.272       .  A
O1286      C1295   1.288       .  A
O1287      C1296   1.272       .  A
O1288      C1295   1.268   1_556  A
O1289      C1296   1.287   1_554  A
O1290      C1297   1.276       .  A
O1291      C1297   1.271       .  A
C1292      C1323   1.471       .  S
C1293      C1416   1.475       .  S
C1294      C1439   1.442       .  S
C1297      C1426   1.467       .  S
Zn1298     O1302   1.926       .  S
Zn1298     O1303   1.971       .  S
Zn1298     O1307   1.968       .  S
Zn1298     O1314   2.007       .  S
Zn1299     O1302   1.985       .  S
Zn1299     O1304   2.053       .  S
Zn1299     O1306   2.115       .  S
Zn1299     O1310   2.128       .  S
Zn1300     O1302   1.948       .  S
Zn1300     O1305   1.962       .  S
Zn1300     O1308   1.979       .  S
Zn1301     O1302   1.918       .  S
Zn1301     O1309   2.023   1_655  S
Zn1301     O1312   1.967       .  S
Zn1301     O1313   2.021       .  S
O1303      C1315   1.268       .  A
O1304      C1316   1.278       .  A
O1305      C1317   1.267       .  A
O1306      C1315   1.289       .  A
O1307      C1317   1.267       .  A
O1308      C1316   1.269       .  A
O1310      C1319   1.287       .  A
O1311      C1318   1.267       .  A
O1312      C1319   1.272       .  A
O1313      C1320   1.274       .  A
O1314      C1320   1.270       .  A
C1316      C1419   1.479       .  S
C1317      C1406   1.444       .  S
C1318      C1332   1.471       .  S
C1320      C1429   1.491       .  S
C1321      C1322   1.409       .  A
C1321      C1326   1.430       .  A
C1322      C1323   1.404       .  A
C1322      H1327   1.084       .  S
C1323      C1324   1.391       .  A
C1324      C1325   1.402       .  A
C1324      H1328   1.085       .  S
C1325      C1326   1.410       .  A
C1326      H1329   1.083       .  S
C1330      C1331   1.409       .  A
C1330      C1335   1.430       .  A
C1331      C1332   1.404       .  A
C1331      H1336   1.084       .  S
C1332      C1333   1.391       .  A
C1333      C1334   1.403       .  A
C1333      H1337   1.085       .  S
C1334      C1335   1.410       .  A
C1335      H1338   1.083       .  S
Zn1339     O1343   1.985   1_554  S
Zn1339     O1344   2.111       .  S
Zn1339     O1348   2.126       .  S
Zn1339     O1355   2.051       .  S
Zn1340     O1343   1.926       .  S
Zn1340     O1345   2.013       .  S
Zn1340     O1347   1.974       .  S
Zn1340     O1351   1.972       .  S
Zn1341     O1343   1.917       .  S
Zn1341     O1346   1.963       .  S
Zn1341     O1349   2.018       .  S
Zn1341     O1352   2.023       .  S
Zn1342     O1343   1.948   1_554  S
Zn1342     O1353   1.963       .  S
Zn1342     O1354   1.982       .  S
O1344      C1356   1.288       .  A
O1345      C1357   1.273       .  A
O1346      C1358   1.272       .  A
O1347      C1356   1.269   1_556  A
O1348      C1358   1.286   1_554  A
O1349      C1357   1.272       .  A
O1350      C1359   1.268       .  A
O1351      C1360   1.268       .  A
O1353      C1360   1.267   1_554  A
O1354      C1361   1.271       .  A
O1355      C1361   1.277       .  A
C1357      C1389   1.487       .  S
C1360      C1436   1.445       .  S
C1361      C1399   1.481       .  S
Zn1362     O1366   1.982       .  S
Zn1362     O1367   2.047       .  S
Zn1362     O1371   2.117       .  S
Zn1362     O1378   2.124       .  S
Zn1363     O1366   1.952       .  S
Zn1363     O1368   1.961       .  S
Zn1363     O1370   1.988       .  S
Zn1364     O1366   1.929       .  S
Zn1364     O1369   1.971       .  S
Zn1364     O1372   1.973       .  S
Zn1364     O1375   2.017       .  S
Zn1365     O1366   1.913       .  S
Zn1365     O1373   2.012       .  S
Zn1365     O1376   2.019       .  S
Zn1365     O1377   1.963       .  S
O1367      C1379   1.277       .  A
O1368      C1380   1.267       .  A
O1369      C1381   1.268       .  A
O1370      C1379   1.271       .  A
O1371      C1381   1.289       .  A
O1372      C1380   1.268       .  A
O1373      C1382   1.272       .  A
O1374      C1383   1.269       .  A
O1375      C1382   1.272       .  A
O1377      C1384   1.272       .  A
O1378      C1384   1.286       .  A
C1379      C1386   1.468       .  S
C1380      C1409   1.441       .  S
C1382      C1396   1.475       .  S
C1385      C1386   1.400       .  A
C1385      C1390   1.402       .  A
C1385      H1392   1.084       .  S
C1386      C1387   1.404       .  A
C1387      C1388   1.397       .  A
C1387     Br1394   1.920       .  S
C1388      C1389   1.408       .  A
C1388      H1393   1.083       .  S
C1389      C1390   1.418       .  A
C1390     Br1391   1.922       .  S
C1395      C1396   1.405       .  A
C1395      C1400   1.403       .  A
C1395      H1402   1.083       .  S
C1396      C1397   1.409       .  A
C1397      C1398   1.395       .  A
C1398      C1399   1.406       .  A
C1398      H1403   1.084       .  S
C1399      C1400   1.412       .  A
C1400     Br1401   1.920       .  S
C1405      C1410   1.388       .  A
C1405      H1412   1.084       .  S
C1406      C1407   1.404       .  A
C1407      C1408   1.389       .  A
C1407     Br1414   1.919       .  S
C1408      H1413   1.084       .  S
C1409      C1410   1.402       .  A
C1410     Br1411   1.918       .  S
C1415      C1416   1.401       .  A
C1415      C1420   1.395       .  A
C1415      H1422   1.084       .  S
C1416      C1417   1.410       .  A
C1417      C1418   1.402       .  A
C1417     Br1424   1.919       .  S
C1418      C1419   1.405       .  A
C1418      H1423   1.083       .  S
C1419      C1420   1.415       .  A
C1425      C1426   1.398       .  A
C1425      C1430   1.401       .  A
C1425      H1432   1.084       .  S
C1426      C1427   1.404       .  A
C1427      C1428   1.397       .  A
C1427     Br1434   1.920       .  S
C1428      C1429   1.410       .  A
C1428      H1433   1.083       .  S
C1429      C1430   1.421       .  A
C1430     Br1431   1.923       .  S
C1435      C1440   1.388       .  A
C1435      H1442   1.084   1_556  S
C1436      C1437   1.404       .  A
C1437      C1438   1.389       .  A
C1437     Br1444   1.919       .  S
C1438      H1443   1.084       .  S
C1439      C1440   1.402       .  A
C1440     Br1441   1.918   1_556  S
C1445      C1446   1.401       .  A
C1445      C1450   1.404       .  A
C1445      H1452   1.084       .  S
C1446      C1447   1.402       .  A
C1447      C1448   1.393       .  A
C1447     Br1454   1.921       .  S
C1448      C1449   1.410       .  A
C1448      H1453   1.083       .  S
C1449      C1450   1.418       .  A
C1450     Br1451   1.920       .  S
C1455      C1456   1.406       .  A
C1455      C1460   1.394       .  A
C1455      H1462   1.084       .  S
C1456      C1457   1.413       .  A
C1457      C1458   1.403       .  A
C1457     Br1464   1.920       .  S
C1458      C1459   1.404       .  A
C1458      H1463   1.083       .  S
C1459      C1460   1.408       .  A
C1460     Br1461   1.922       .  S
C1465      C1470   1.387       .  A
C1465      H1472   1.084       .  S
C1466      C1467   1.404       .  A
C1467     Br1474   1.918       .  S
C1468      C1469   1.398       .  A
C1468      H1473   1.084       .  S
C1469      C1470   1.406       .  A
C1470     Br1471   1.916       .  S
C1475      C1476   1.407       .  A
C1475      C1480   1.396       .  A
C1475      H1482   1.083       .  S
C1476      C1477   1.417       .  A
C1477      C1478   1.402       .  A
C1477     Br1484   1.921       .  S
C1478      C1479   1.400       .  A
C1478      H1483   1.084       .  S
C1479      C1480   1.405       .  A
C1480     Br1481   1.920       .  S
C1485      C1486   1.407       .  A
C1485      C1490   1.394       .  A
C1485      H1492   1.084       .  S
C1486      C1487   1.414       .  A
C1487      C1488   1.404       .  A
C1487     Br1494   1.920       .  S
C1488      C1489   1.404       .  A
C1488      H1493   1.083       .  S
C1489      C1490   1.406       .  A
C1490     Br1491   1.922       .  S
C1495      C1496   1.396       .  A
C1495      H1502   1.084       .  S
C1496      C1497   1.404       .  A
C1497      C1498   1.387       .  A
C1497     Br1504   1.916       .  S
C1498      H1503   1.084       .  S
C1499      C1500   1.404       .  A
C1500     Br1501   1.916       .  S
