geometry optimzed in LAMMPS
_audit_creation_date              2020-11-30 
_audit_creation_method            'lammps2cif' 
_symmetry_space_group_name_H-M    'P1' 
_symmetry_Int_Tables_number       1 
_symmetry_cell_setting            triclinic 
loop_ 
_symmetry_equiv_pos_as_xyz 
  x,y,z 
_cell_length_a                    34.23207487 
_cell_length_b                    34.20384743749122 
_cell_length_c                    33.42307004215608 
_cell_angle_alpha                 90.11440529589804 
_cell_angle_beta                  89.78653054967262 
_cell_angle_gamma                 120.40756413997335 
loop_ 
_atom_site_label 
_atom_site_type_symbol 
_atom_site_fract_x 
_atom_site_fract_y 
_atom_site_fract_z 
_atom_site_charge 
O1          O  0.29533112  0.60496664  0.97600736    -0.84700
O2          O  0.38274698  0.62986286  0.99757341    -0.81800
C3          C  0.40700338  0.66325423  0.97520550     0.98700
O4          O  0.40763307  0.70014219  0.97965533    -0.81800
O5          O  0.38060523  0.76115171  0.00025622    -0.84500
C6          C  0.34679635  0.75349909  0.97913034     1.03300
O7          O  0.30917335  0.71768326  0.98379855    -0.77200
O8          O  0.24935137  0.62782007  0.99728835    -0.77400
C9          C  0.25925542  0.60616367  0.97235706     1.03200
O10         O  0.26718939  0.58617492  0.05762337    -0.84700
O11         O  0.35685947  0.62090636  0.07990832    -0.81800
C12         C  0.39757416  0.65102500  0.08600122     0.98800
O13         O  0.41756546  0.68546746  0.06337235    -0.81800
O14         O  0.38533270  0.74083430  0.08320417    -0.84400
C15         C  0.35466456  0.74974147  0.09057123     1.03200
O16         O  0.32012340  0.73500586  0.06850441    -0.77200
O17         O  0.26610824  0.64471558  0.08260664    -0.77400
C18         C  0.25203499  0.60293647  0.08268393     1.03200
Cr19       Cr  0.32639302  0.61510404  0.02804820     1.93700
Cr20       Cr  0.39318598  0.71809075  0.03138142     1.93200
Cr21       Cr  0.29004136  0.68062957  0.03289397     1.39100
O22         O  0.33664956  0.67149947  0.03088165    -1.22500
O23         O  0.73484483  0.35182478  0.01919427    -0.84700
O24         O  0.68110003  0.26119451  0.99916303    -0.81800
C25         C  0.64717080  0.24502102  0.02236163     0.98700
O26         O  0.61698297  0.25554137  0.01808112    -0.81800
O27         O  0.58010128  0.30801994  0.99592166    -0.84500
C28         C  0.59669549  0.34164507  0.01930075     1.03300
O29         O  0.63759246  0.37256112  0.01610945    -0.77200
O30         O  0.72844632  0.40980611  0.00012526    -0.77400
C31         C  0.74400985  0.39226469  0.02383265     1.03200
O32         O  0.75429067  0.37428802  0.93622743    -0.84700
O33         O  0.69428748  0.28552649  0.91573739    -0.81800
C34         C  0.65714547  0.24908058  0.91100213     0.98800
O35         O  0.62458238  0.23841790  0.93487483    -0.81800
O36         O  0.59561818  0.29739780  0.91352244    -0.84400
C37         C  0.59723595  0.33474788  0.90818832     1.03200
O38         O  0.61954100  0.36766848  0.93164157    -0.77200
O39         O  0.70918565  0.39813135  0.91579583    -0.77400
C40         C  0.74550901  0.39740173  0.91241602     1.03200
Cr41       Cr  0.71216924  0.31874699  0.96755990     1.93700
Cr42       Cr  0.60894928  0.27886985  0.96576144     1.93200
Cr43       Cr  0.67308136  0.38247980  0.96600739     1.39100
O44         O  0.66475711  0.32680360  0.96678229    -1.22500
C45         C  0.96093544  0.99865396  0.26478213     0.02900
C46         C  0.95942604  0.95643860  0.26457711     0.02900
C47         C  0.00021391  0.95513766  0.26334561     0.02900
C48         C  0.04257566  0.99597265  0.26256580     0.02900
C49         C  0.04405630  0.03809547  0.26204352     0.02900
C50         C  0.00343253  0.03945684  0.26437706     0.02900
C51         C  0.64448055  0.02868543  0.19665452     0.03800
C52         C  0.60502810  0.99440577  0.21544853    -0.12400
C53         C  0.60654603  0.96032999  0.23794621     0.01300
C54         C  0.64793070  0.96138195  0.24226757    -0.10900
C55         C  0.68785891  0.99607192  0.22504644     0.03700
C56         C  0.68569972  0.02946651  0.20240876    -0.10300
H57         H  0.57310778  0.99335136  0.21153033     0.09300
H58         H  0.64915317  0.93532757  0.25970026     0.06900
H59         H  0.71660907  0.05691129  0.19002602     0.06700
C60         C  0.36370621  0.96822115  0.25734459     0.03800
C61         C  0.40128946  0.00181149  0.27845901    -0.12400
C62         C  0.39946885  0.03823492  0.29629915     0.01300
C63         C  0.35987949  0.04081054  0.29211637    -0.10900
C64         C  0.32234025  0.00774212  0.27095651     0.03700
C65         C  0.32500633  0.97225256  0.25301751    -0.10300
H66         H  0.43101472  0.99868472  0.28187902     0.09300
H67         H  0.35817966  0.06865176  0.30567925     0.06900
H68         H  0.29625790  0.94725335  0.23610053     0.06700
C69         C  0.36105637  0.39422152  0.23533567     0.03800
C70         C  0.32043922  0.35306858  0.24000479    -0.12400
C71         C  0.31550996  0.31262827  0.22503385     0.01300
C72         C  0.35120971  0.31398203  0.20324031    -0.10900
C73         C  0.39233354  0.35503847  0.19762130     0.03700
C74         C  0.39741966  0.39521597  0.21461442    -0.10300
H75         H  0.29265017  0.35265680  0.25595681     0.09300
H76         H  0.34706126  0.28273844  0.19101792     0.06900
H77         H  0.42860067  0.42721233  0.21077680     0.06700
C78         C  0.97653011  0.35810403  0.30747801     0.03800
C79         C  0.98212025  0.31991252  0.30681782    -0.12400
C80         C  0.01253978  0.31723147  0.28045674     0.01300
C81         C  0.03796642  0.35339192  0.25456410    -0.10900
C82         C  0.03219744  0.39119804  0.25325970     0.03700
C83         C  0.00187975  0.39388261  0.28026638    -0.10300
H84         H  0.96208494  0.29131232  0.32610177     0.09300
H85         H  0.06279218  0.35234024  0.23525359     0.06900
H86         H  0.99756983  0.42314225  0.27963493     0.06700
C87         C  0.63907494  0.60470049  0.29879499     0.03800
C88         C  0.67970388  0.64671950  0.29568745    -0.12400
C89         C  0.68187901  0.68284173  0.27412345     0.01300
C90         C  0.64258591  0.67698071  0.25587106    -0.10900
C91         C  0.60140080  0.63567258  0.25842278     0.03700
C92         C  0.59978227  0.59922373  0.27965093    -0.10300
H93         H  0.71009544  0.65147366  0.31011396     0.09300
H94         H  0.64385560  0.70502496  0.23980077     0.06900
H95         H  0.56808610  0.56746759  0.28190203     0.06700
C96         C  0.01683704  0.62904879  0.25276351     0.03800
C97         C  0.98414592  0.59285022  0.22975692    -0.12400
C98         C  0.94933927  0.59644587  0.21078712     0.01300
C99         C  0.94745269  0.63640948  0.21598269    -0.10900
C100        C  0.97981008  0.67248494  0.23924192     0.03700
C101        C  0.01399674  0.66820467  0.25762933    -0.10300
H102        H  0.98683086  0.56291354  0.22580140     0.09300
H103        H  0.92084918  0.63952612  0.20167748     0.06900
H104        H  0.03929320  0.69608474  0.27534772     0.06700
O105        O  0.59936765  0.29390779  0.58141480    -0.84700
O106        O  0.62742872  0.38184985  0.55905373    -0.81800
C107        C  0.65889942  0.40550871  0.58316821     0.98700
O108        O  0.69625644  0.40671910  0.58085224    -0.81800
O109        O  0.75621956  0.37726962  0.56739011    -0.84500
C110        C  0.74519224  0.34424638  0.59078807     1.03300
O111        O  0.70991345  0.30648933  0.58470972    -0.77200
O112        O  0.62214669  0.24709760  0.56310613    -0.77400
C113        C  0.60026453  0.25785969  0.58678229     1.03200
O114        O  0.58859258  0.26831479  0.49852556    -0.84700
O115        O  0.62540350  0.35842284  0.47702819    -0.81800
C116        C  0.65645969  0.39921524  0.47246620     0.98800
O117        O  0.69004999  0.41721251  0.49592902    -0.81800
O118        O  0.74525193  0.38156678  0.48227287    -0.84400
C119        C  0.75616527  0.35149244  0.48008955     1.03200
O120        O  0.73776739  0.31722701  0.50274380    -0.77200
O121        O  0.64755501  0.26339469  0.48012736    -0.77400
C122        C  0.60671158  0.25262159  0.47548602     1.03200
Cr123      Cr  0.61478659  0.32617015  0.52910033     1.93700
Cr124      Cr  0.71801034  0.39109329  0.53146412     1.93200
Cr125      Cr  0.67874950  0.28756322  0.53233686     1.39100
O126        O  0.67066469  0.33506743  0.53052512    -1.22500
O127        O  0.37472452  0.74887555  0.43211480    -0.84700
O128        O  0.28531789  0.68979498  0.41562012    -0.81800
C129        C  0.24891589  0.65259839  0.41148922     0.98700
O130        O  0.23917657  0.61961158  0.43440738    -0.81800
O131        O  0.29786129  0.59009794  0.41420036    -0.84500
C132        C  0.33464179  0.59043147  0.40979906     1.03300
O133        O  0.36730852  0.61304789  0.43326826    -0.77200
O134        O  0.39642678  0.70153822  0.41251425    -0.77400
C135        C  0.39636923  0.73814235  0.40805369     1.03200
O136        O  0.35496580  0.73358971  0.51639808    -0.84700
O137        O  0.26349969  0.67950523  0.49918075    -0.81800
C138        C  0.24592482  0.64500760  0.52170104     0.98800
O139        O  0.25601498  0.61444258  0.51764877    -0.81800
O140        O  0.30968962  0.57816974  0.49748238    -0.84400
C141        C  0.34400639  0.59573002  0.52007909     1.03200
O142        O  0.37453453  0.63677973  0.51606069    -0.77200
O143        O  0.41237388  0.72769603  0.49491034    -0.77400
C144        C  0.39636673  0.74557849  0.51790068     1.03200
Cr145      Cr  0.32013452  0.70889100  0.46599516     1.93700
Cr146      Cr  0.27972206  0.60518669  0.46600137     1.93200
Cr147      Cr  0.38311124  0.66918449  0.46445455     1.39100
O148        O  0.32757875  0.66107471  0.46592855    -1.22500
C149        C  0.04249192  0.00515862  0.75559493     0.02900
C150        C  0.00081272  0.96353287  0.75738904     0.02900
C151        C  0.95960839  0.96387808  0.75792589     0.02900
C152        C  0.95985800  0.00532024  0.75573157     0.02900
C153        C  0.00139118  0.04690062  0.75443010     0.02900
C154        C  0.04256519  0.04662869  0.75362683     0.02900
C155        C  0.35920255  0.96926157  0.79946526     0.03800
C156        C  0.31676514  0.96575938  0.79448347    -0.12400
C157        C  0.31252422  0.99882415  0.77337987     0.01300
C158        C  0.35130607  0.03543069  0.75654543    -0.10900
C159        C  0.39406800  0.03951443  0.76072127     0.03700
C160        C  0.39786707  0.00611706  0.78201913    -0.10300
H161        H  0.28695246  0.93728923  0.80748548     0.09300
H162        H  0.34811184  0.06079387  0.73987127     0.06900
H163        H  0.43073310  0.00906445  0.78515646     0.06700
C164        C  0.64374838  0.03829102  0.72782117     0.03800
C165        C  0.68278465  0.03535352  0.73341428    -0.12400
C166        C  0.68781508  0.00167149  0.71456623     0.01300
C167        C  0.65324663  0.97065625  0.68945650    -0.10900
C168        C  0.61383404  0.97300046  0.68283190     0.03700
C169        C  0.60874022  0.00642912  0.70307743    -0.10300
H170        H  0.70942175  0.05943632  0.75287746     0.09300
H171        H  0.65664088  0.94389667  0.67575281     0.06900
H172        H  0.57860886  0.00866360  0.69854638     0.06700
C173        C  0.96004804  0.36001574  0.76852427     0.03800
C174        C  0.99460458  0.39872489  0.78793181    -0.12400
C175        C  0.03195182  0.39784813  0.80477714     0.01300
C176        C  0.03420290  0.35794921  0.80191373    -0.10900
C177        C  0.00017975  0.31935452  0.78250431     0.03700
C178        C  0.96364573  0.32092967  0.76578996    -0.10300
H179        H  0.99257285  0.42927845  0.78956608     0.09300
H180        H  0.06288366  0.35718970  0.81452894     0.06900
H181        H  0.93814603  0.29144142  0.74991528     0.06700
C182        C  0.36333048  0.39252310  0.69481813     0.03800
C183        C  0.40257959  0.39708844  0.71325638    -0.12400
C184        C  0.39979522  0.36081020  0.73569180     0.01300
C185        C  0.35771455  0.32112091  0.74057553    -0.10900
C186        C  0.31852007  0.31673422  0.72349825     0.03700
C187        C  0.32168808  0.35203194  0.70016641    -0.10300
H188        H  0.43506183  0.42767756  0.70922176     0.09300
H189        H  0.35552507  0.29331174  0.75785112     0.06900
H190        H  0.29115069  0.34805144  0.68665666     0.06700
C191        C  0.03706439  0.64754208  0.70331971     0.03800
C192        C  0.03888801  0.68930308  0.70929472    -0.12400
C193        C  0.00604968  0.69232550  0.73218577     0.01300
C194        C  0.97161054  0.65302100  0.75026893    -0.10900
C195        C  0.96940872  0.61104470  0.74565499     0.03700
C196        C  0.00272604  0.60855695  0.72268112    -0.10300
H197        H  0.06622192  0.71976875  0.69625153     0.09300
H198        H  0.94623069  0.65511042  0.76809368     0.06900
H199        H  0.00067838  0.57616066  0.71844542     0.06700
C200        C  0.63898134  0.60956503  0.75389083     0.03800
C201        C  0.67904891  0.65162244  0.75031956    -0.12400
C202        C  0.68383484  0.69033243  0.76912157     0.01300
C203        C  0.64793217  0.68672956  0.79201057    -0.10900
C204        C  0.60713996  0.64510109  0.79588716     0.03700
C205        C  0.60256347  0.60636454  0.77630096    -0.10300
H206        H  0.70686024  0.65395487  0.73292679     0.09300
H207        H  0.65194659  0.71666231  0.80700875     0.06900
H208        H  0.57146720  0.57401444  0.77888432     0.06700
C209        C  0.01767538  0.15484808  0.77721059     0.30400
C210        C  0.03434482  0.19520563  0.79917162    -0.36000
C211        C  0.01898442  0.22443390  0.78730812     0.16400
C212        C  0.98900464  0.21441943  0.75621408     0.22200
C213        C  0.97262803  0.17424821  0.73402738    -0.34100
C214        C  0.98834564  0.14525024  0.74563252     0.16300
O215        O  0.02652016  0.12214788  0.78392752    -0.26100
C216        C  0.00252297  0.09104237  0.75634344     0.06100
C217        C  0.97877935  0.10408612  0.73114430    -0.31000
O218        O  0.97856117  0.24616477  0.75063923    -0.22800
C219        C  0.00243915  0.27733342  0.77825686    -0.02800
C220        C  0.02823410  0.26545339  0.80200894    -0.17200
H221        H  0.05743324  0.20310445  0.82395719     0.20800
H222        H  0.94908303  0.16606826  0.70957503     0.19100
H223        H  0.95680388  0.08544805  0.70643541     0.19100
H224        H  0.05007161  0.28383624  0.82686151     0.14900
C225        C  0.14968122  0.14472859  0.76103305     0.30400
C226        C  0.19162681  0.17463247  0.77834331    -0.36000
C227        C  0.22026307  0.21330837  0.75586960     0.16400
C228        C  0.20839577  0.22232750  0.71907456     0.22200
C229        C  0.16625221  0.19257696  0.70185357    -0.34100
C230        C  0.13772506  0.15368659  0.72420980     0.16300
O231        O  0.11816361  0.10594671  0.77636874    -0.26100
C232        C  0.08558861  0.09003771  0.74904917     0.06100
C233        C  0.09584183  0.11822490  0.71597167    -0.31000
O234        O  0.24093764  0.26005967  0.70299258    -0.22800
C235        C  0.27423957  0.27514887  0.72969768    -0.02800
C236        C  0.26304938  0.24746885  0.76329152    -0.17200
H237        H  0.20154117  0.16786082  0.80704210     0.20800
H238        H  0.15664081  0.19896624  0.67284633     0.19100
H239        H  0.07537924  0.11301628  0.68968577     0.19100
H240        H  0.28345448  0.25175820  0.78940208     0.14900
C241        C  0.86245958  0.85684255  0.74555198     0.30400
C242        C  0.83458305  0.81501200  0.72711371    -0.36000
C243        C  0.79274245  0.78713395  0.74564922     0.16400
C244        C  0.77899350  0.79946586  0.77987096     0.22200
C245        C  0.80686083  0.84146341  0.79832442    -0.34100
C246        C  0.84889379  0.86931364  0.77986626     0.16300
O247        O  0.90308969  0.88799986  0.73337179    -0.26100
C248        C  0.91574122  0.92086193  0.76025074     0.06100
C249        C  0.88345972  0.91109808  0.78993984    -0.31000
O250        O  0.73873224  0.76757181  0.79234592    -0.22800
C251        C  0.72667134  0.73425972  0.76585409    -0.02800
C252        C  0.75903114  0.74488737  0.73599929    -0.17200
H253        H  0.84495069  0.80475264  0.70034195     0.20800
H254        H  0.79667632  0.85154688  0.82530878     0.19100
H255        H  0.88530437  0.93194871  0.81509502     0.19100
H256        H  0.75819084  0.72463081  0.71075334     0.14900
C257        C  0.79020453  0.01216579  0.74745008     0.30400
C258        C  0.82833528  0.02763782  0.77209352    -0.36000
C259        C  0.85982116  0.01502000  0.76054295     0.16400
C260        C  0.85422610  0.98918404  0.72693621     0.22200
C261        C  0.81598491  0.97345468  0.70250147    -0.34100
C262        C  0.78443150  0.98589054  0.71416882     0.16300
O263        O  0.75707317  0.02079995  0.75207514    -0.26100
C264        C  0.72943539  0.99955410  0.72150862     0.06100
C265        C  0.74490430  0.97720423  0.69693601    -0.31000
O266        O  0.88833450  0.98236374  0.72107300    -0.22800
C267        C  0.91625355  0.00418941  0.75122489    -0.02800
C268        C  0.90004352  0.02471168  0.77708639    -0.17200
H269        H  0.83331025  0.04842275  0.79820455     0.20800
H270        H  0.81138097  0.95328849  0.67602172     0.19100
H271        H  0.73006734  0.95832664  0.66973080     0.19100
H272        H  0.91599092  0.04444386  0.80367614     0.14900
C273        C  0.13332412  0.98732652  0.77545484     0.30400
C274        C  0.15644498  0.96934288  0.79586532    -0.36000
C275        C  0.19962649  0.98181328  0.78112215     0.16400
C276        C  0.21876616  0.01005330  0.74860103     0.22200
C277        C  0.19533558  0.02748126  0.72780609    -0.34100
C278        C  0.15216502  0.01505919  0.74257889     0.16300
O279        O  0.09297032  0.98079595  0.78458478    -0.26100
C280        C  0.08575295  0.00473086  0.75727467     0.06100
C281        C  0.12137828  0.02644293  0.73010847    -0.31000
O282        O  0.26039966  0.01910111  0.74122260    -0.22800
C283        C  0.26807662  0.99609991  0.76918974    -0.02800
C284        C  0.23118383  0.97210268  0.79476994    -0.17200
H285        H  0.14205471  0.94770917  0.82177967     0.20800
H286        H  0.21006369  0.04981846  0.70235582     0.19100
H287        H  0.12400930  0.04717845  0.70467582     0.19100
H288        H  0.22849104  0.95196599  0.82067707     0.14900
C289        C  0.99080345  0.78408413  0.75785617     0.30400
C290        C  0.97278854  0.80695288  0.77912262    -0.36000
C291        C  0.98723251  0.85148119  0.76663047     0.16400
C292        C  0.01706278  0.87185239  0.73525865     0.22200
C293        C  0.03522100  0.84915910  0.71425286    -0.34100
C294        C  0.02099982  0.80486435  0.72683925     0.16300
O295        O  0.98171135  0.74213803  0.76399767    -0.26100
C296        C  0.00668796  0.73598783  0.73671430     0.06100
C297        C  0.03173445  0.77413687  0.71274327    -0.31000
O298        O  0.02548999  0.91326657  0.72806928    -0.22800
C299        C  0.00084693  0.91991836  0.75517420    -0.02800
C300        C  0.97660925  0.88261750  0.78029043    -0.17200
H301        H  0.94904855  0.79108999  0.80356297     0.20800
H302        H  0.05873213  0.86493402  0.68964432     0.19100
H303        H  0.05398103  0.77864617  0.68790009     0.19100
H304        H  0.95441107  0.87897436  0.80494356     0.14900
C305        C  0.33891261  0.45666533  0.62837017     0.30400
C306        C  0.31149327  0.46304260  0.60146136    -0.36000
C307        C  0.33065506  0.50595417  0.58407889     0.16400
C308        C  0.37389519  0.54070208  0.59248784     0.22200
C309        C  0.40154432  0.53423942  0.61970923    -0.34100
C310        C  0.38228652  0.49081406  0.63714297     0.16300
O311        O  0.32739935  0.41879692  0.64736264    -0.26100
C312        C  0.36366421  0.42796828  0.66889112     0.06100
C313        C  0.39914916  0.47256700  0.66371593    -0.31000
O314        O  0.38482044  0.57787780  0.57174729    -0.22800
C315        C  0.34790806  0.56630308  0.54999099    -0.02800
C316        C  0.31336372  0.52199291  0.55657090    -0.17200
H317        H  0.27758079  0.43614453  0.59427303     0.20800
H318        H  0.43567777  0.56091385  0.62647480     0.19100
H319        H  0.43228936  0.48918541  0.67742415     0.19100
H320        H  0.28039863  0.50391787  0.54252729     0.14900
C321        C  0.10921051  0.62323014  0.64480527     0.30400
C322        C  0.13099726  0.59967858  0.63165316    -0.36000
C323        C  0.16195812  0.61956733  0.59954386     0.16400
C324        C  0.17034475  0.65954124  0.58189433     0.22200
C325        C  0.14856305  0.68256364  0.59471796    -0.34100
C326        C  0.11824819  0.66304208  0.62656690     0.16300
O327        O  0.07934185  0.61178741  0.67440956    -0.26100
C328        C  0.06969470  0.64514796  0.67504490     0.06100
C329        C  0.09294646  0.67755165  0.64553821    -0.31000
O330        O  0.20052153  0.67292526  0.55298395    -0.22800
C331        C  0.21226172  0.64142503  0.55151095    -0.02800
C332        C  0.18921936  0.60701696  0.57975175    -0.17200
H333        H  0.12456845  0.56843206  0.64556235     0.20800
H334        H  0.15516961  0.71395684  0.58096391     0.19100
H335        H  0.09120875  0.70743151  0.63828301     0.19100
H336        H  0.19225931  0.57746297  0.58498862     0.14900
C337        C  0.51633178  0.89664882  0.62758826     0.30400
C338        C  0.46986704  0.87060464  0.61804772    -0.36000
C339        C  0.45815668  0.83748508  0.58797583     0.16400
C340        C  0.49012890  0.83094060  0.56871124     0.22200
C341        C  0.53621952  0.85724281  0.57771212    -0.34100
C342        C  0.54771314  0.88981784  0.60767885     0.16300
O343        O  0.53509461  0.92772859  0.65611563    -0.26100
C344        C  0.57899871  0.94055366  0.65440116     0.06100
C345        C  0.58847543  0.91828073  0.62430545    -0.31000
O346        O  0.47231389  0.79778584  0.54243758    -0.22800
C347        C  0.42810722  0.78243587  0.54447557    -0.02800
C348        C  0.41713206  0.80596452  0.57223145    -0.17200
H349        H  0.44461445  0.87512147  0.63351993     0.20800
H350        H  0.56135877  0.85196599  0.56293590     0.19100
H351        H  0.62065978  0.92172671  0.61606807     0.19100
H352        H  0.38397572  0.80058547  0.57968726     0.15300
C353        C  0.80445323  0.33236030  0.67068518     0.30400
C354        C  0.81612361  0.30846122  0.69738068    -0.36000
C355        C  0.85695079  0.33415985  0.71802244     0.16400
C356        C  0.88454244  0.38034697  0.71320888     0.22200
C357        C  0.87229382  0.40453169  0.68710525    -0.34100
C358        C  0.83157822  0.37867137  0.66598340     0.16300
O359        O  0.76991455  0.31433057  0.64575018    -0.26100
C360        C  0.77489700  0.34946729  0.62460903     0.06100
C361        C  0.81253050  0.39040935  0.63604572    -0.31000
O362        O  0.92360091  0.39643582  0.73221148    -0.22800
C363        C  0.92093075  0.35993389  0.74927052    -0.02800
C364        C  0.87972325  0.32051655  0.74186890    -0.17200
H365        H  0.79595416  0.27196069  0.70031057     0.20800
H366        H  0.89412737  0.44052491  0.68199266     0.19100
H367        H  0.82501676  0.42363616  0.62304537     0.19100
H368        H  0.86891059  0.28608579  0.75074384     0.14900
C369        C  0.49076561  0.11384668  0.70476482     0.30400
C370        C  0.52571118  0.12509794  0.67689533    -0.36000
C371        C  0.54366388  0.16769789  0.65844634     0.16400
C372        C  0.52889657  0.19756433  0.66727920     0.22200
C373        C  0.49472281  0.18673854  0.69576415    -0.34100
C374        C  0.47619320  0.14385183  0.71360658     0.16300
O375        O  0.46547312  0.07388159  0.72192490    -0.26100
C376        C  0.43407604  0.07827057  0.74175546     0.06100
C377        C  0.43949824  0.12130046  0.73790069    -0.31000
O378        O  0.54753238  0.23377654  0.64404588    -0.22800
C379        C  0.57452074  0.22700016  0.61988982    -0.02800
C380        C  0.57371628  0.18659657  0.62769442    -0.17200
H381        H  0.53635552  0.10133539  0.66852053     0.20800
H382        H  0.48170043  0.20910291  0.70190775     0.19100
H383        H  0.41791217  0.13337475  0.74941974     0.19100
H384        H  0.59121312  0.17232902  0.61181461     0.14900
C385        C  0.66594885  0.47923286  0.65936265     0.30400
C386        C  0.68749857  0.51225317  0.68892833    -0.36000
C387        C  0.66204478  0.52982354  0.70562180     0.16400
C388        C  0.61824204  0.51614030  0.69426436     0.22200
C389        C  0.59632653  0.48251920  0.66483478    -0.34100
C390        C  0.62198620  0.46490759  0.64794756     0.16300
O391        O  0.68450942  0.46001201  0.63856584    -0.26100
C392        C  0.65209568  0.43282675  0.61339705     0.06100
C393        C  0.61235220  0.43435921  0.61788498    -0.31000
O394        O  0.60262040  0.54041215  0.71157678    -0.22800
C395        C  0.63707397  0.56988431  0.73418310    -0.02800
C396        C  0.67453935  0.56428723  0.73184423    -0.17200
H397        H  0.72227240  0.52449170  0.69742484     0.20800
H398        H  0.56238479  0.47199275  0.65485073     0.19100
H399        H  0.58133708  0.41635383  0.60087037     0.19100
H400        H  0.70738654  0.58463003  0.74563953     0.14900
C401        C  0.11937486  0.65483875  0.29714957     0.30400
C402        C  0.16213447  0.68434994  0.31317331    -0.36000
C403        C  0.18028821  0.66449241  0.33764407     0.16400
C404        C  0.15790323  0.61864192  0.34586182     0.22200
C405        C  0.11540920  0.58882870  0.32897777    -0.34100
C406        C  0.09714725  0.60878887  0.30438258     0.16300
O407        O  0.09458555  0.66715085  0.27696131    -0.26100
C408        C  0.05592332  0.62865130  0.27067786     0.06100
C409        C  0.05564579  0.59092648  0.28667904    -0.31000
O410        O  0.17956813  0.60814551  0.37234068    -0.22800
C411        C  0.21634507  0.64774315  0.38076365    -0.02800
C412        C  0.21871257  0.68391685  0.35987622    -0.17200
H413        H  0.17915767  0.72061417  0.30833263     0.20800
H414        H  0.09706739  0.55297725  0.33590324     0.19100
H415        H  0.02794058  0.55618189  0.28762330     0.19100
H416        H  0.24392162  0.71956295  0.36225406     0.14900
C417        C  0.66514553  0.53740361  0.36028403     0.30400
C418        C  0.69334492  0.52924190  0.38481390    -0.36000
C419        C  0.67301931  0.48698702  0.40381864     0.16400
C420        C  0.62799002  0.45452574  0.39901781     0.22200
C421        C  0.59967040  0.46271119  0.37414255    -0.34100
C422        C  0.62007197  0.50539839  0.35517452     0.16300
O423        O  0.67716099  0.57536305  0.34102254    -0.26100
C424        C  0.63948581  0.56828460  0.32298652     0.06100
C425        C  0.60268033  0.52500320  0.33075663    -0.31000
O426        O  0.61590513  0.41815630  0.42140394    -0.22800
C427        C  0.65381581  0.42782317  0.44073535    -0.02800
C428        C  0.69027153  0.47013902  0.43076027    -0.17200
H429        H  0.72855492  0.55456098  0.38947126     0.20800
H430        H  0.56409447  0.43801037  0.37054182     0.19100
H431        H  0.56807596  0.51024783  0.32063090     0.19100
H432        H  0.72429212  0.48674636  0.44273356     0.14900
C433        C  0.83756038  0.34058814  0.42534972     0.30400
C434        C  0.86287810  0.32028137  0.41520305    -0.36000
C435        C  0.89364475  0.34027337  0.38364628     0.16400
C436        C  0.89946574  0.37772465  0.36309446     0.22200
C437        C  0.87421505  0.39850153  0.37354989    -0.34100
C438        C  0.84317459  0.37842192  0.40544549     0.16300
O439        O  0.80649806  0.32662411  0.45359495    -0.26100
C440        C  0.79169170  0.35578776  0.45226454     0.06100
C441        C  0.81339340  0.38901952  0.42292786    -0.31000
O442        O  0.92972064  0.38972041  0.33384548    -0.22800
C443        C  0.94332105  0.35936698  0.33584123    -0.02800
C444        C  0.92192373  0.32815030  0.36671243    -0.17200
H445        H  0.85858010  0.29057623  0.43067944     0.20800
H446        H  0.87819020  0.42791339  0.35778492     0.19100
H447        H  0.80780956  0.41658085  0.41545784     0.19100
H448        H  0.92599184  0.30015028  0.37588988     0.14900
C449        C  0.36977879  0.53477217  0.34309943     0.30400
C450        C  0.39914927  0.52102968  0.32746409    -0.36000
C451        C  0.38190558  0.48939955  0.29609872     0.16400
C452        C  0.33862950  0.47239938  0.28147162     0.22200
C453        C  0.30955718  0.48659875  0.29667565    -0.34100
C454        C  0.32678063  0.51817043  0.32795533     0.16300
O455        O  0.37813145  0.56240237  0.37360276    -0.26100
C456        C  0.34006168  0.56362880  0.37801155     0.06100
C457        C  0.30687963  0.53671474  0.35040260    -0.31000
O458        O  0.32726744  0.43915780  0.25584993    -0.22800
C459        C  0.36375341  0.43487200  0.25349670    -0.02800
C460        C  0.39917411  0.46572743  0.27754310    -0.17200
H461        H  0.43246325  0.53292721  0.33984153     0.20800
H462        H  0.27521603  0.47252164  0.28600764     0.19100
H463        H  0.27291266  0.53108378  0.34772836     0.19100
H464        H  0.43091810  0.46719008  0.28363203     0.14900
C465        C  0.46887589  0.12765243  0.36079475     0.30400
C466        C  0.47806391  0.16352386  0.38641858    -0.36000
C467        C  0.51940932  0.18298962  0.40638934     0.16400
C468        C  0.55026025  0.16865590  0.40165964     0.22200
C469        C  0.54091286  0.13228365  0.37574227    -0.34100
C470        C  0.49894309  0.11242501  0.35563685     0.16300
O471        O  0.43142724  0.10424306  0.34031729    -0.26100
C472        C  0.43665054  0.07300582  0.32138031     0.06100
C473        C  0.47834969  0.07646522  0.32974088    -0.31000
O474        O  0.58648448  0.19179867  0.42458532    -0.22800
C475        C  0.57802226  0.22089560  0.44402326    -0.02800
C476        C  0.53683855  0.21669807  0.43372219    -0.17200
H477        H  0.45420603  0.17505612  0.39093026     0.20800
H478        H  0.56424702  0.11999480  0.37196500     0.19100
H479        H  0.49137778  0.05538943  0.31905422     0.19100
H480        H  0.52151153  0.23538311  0.44535427     0.14900
C481        C  0.45522170  0.82827318  0.34032461     0.30400
C482        C  0.47148254  0.87189785  0.32425351    -0.36000
C483        C  0.50669109  0.88653268  0.29594015     0.16400
C484        C  0.52460617  0.86001081  0.28452803     0.22200
C485        C  0.50761053  0.81614786  0.29975144    -0.34100
C486        C  0.47257185  0.80158445  0.32790874     0.16300
O487        O  0.42526457  0.80918085  0.36954713    -0.26100
C488        C  0.42334165  0.76970522  0.37566455     0.06100
C489        C  0.45184202  0.76313344  0.35037429    -0.31000
O490        O  0.56054468  0.88186860  0.26140987    -0.22800
C491        C  0.56569452  0.92291305  0.25725059    -0.02800
C492        C  0.53277174  0.92766251  0.27775497    -0.17200
H493        H  0.45895299  0.89362763  0.33438108     0.20800
H494        H  0.52219904  0.79558363  0.29160492     0.19100
H495        H  0.45794819  0.73501501  0.34992723     0.19100
H496        H  0.53060905  0.95797277  0.28131228     0.14900
C497        C  0.14142567  0.14687428  0.26585673     0.30400
C498        C  0.16943613  0.19112373  0.27994628    -0.36000
C499        C  0.20944110  0.21769153  0.25819337     0.16400
C500        C  0.22138777  0.20184605  0.22509438     0.22200
C501        C  0.19336955  0.15757123  0.21100106    -0.34100
C502        C  0.15316687  0.13112197  0.23253888     0.16300
O503        O  0.10195947  0.11649045  0.28104571    -0.26100
C504        C  0.08821708  0.08079776  0.25708691     0.06100
C505        C  0.11866441  0.08813995  0.22627529    -0.31000
O506        O  0.26020337  0.23273571  0.20919248    -0.22800
C507        C  0.27316895  0.26905242  0.23221408    -0.02800
C508        C  0.24282111  0.26141124  0.26329638    -0.17200
H509        H  0.16042123  0.20410404  0.30575232     0.20800
H510        H  0.20204442  0.14480285  0.18483839     0.19100
H511        H  0.11546218  0.06520621  0.20246938     0.19100
H512        H  0.24498408  0.28443904  0.28658098     0.14900
C513        C  0.00422474  0.21115594  0.29368638     0.30400
C514        C  0.98823927  0.16853965  0.31132941    -0.36000
C515        C  0.99823384  0.13887360  0.29080366     0.16400
C516        C  0.02269702  0.15043563  0.25554998     0.22200
C517        C  0.03914101  0.19326395  0.23814316    -0.34100
C518        C  0.02878702  0.22279369  0.25853674     0.16300
O519        O  0.99635111  0.24301622  0.30646119    -0.26100
C520        C  0.01616557  0.27575630  0.27922690     0.06100
C521        C  0.03708208  0.26488337  0.24873711    -0.31000
O522        O  0.02745416  0.11714446  0.24117085    -0.22800
C523        C  0.00554175  0.08377563  0.26749825    -0.02800
C524        C  0.98680760  0.09544424  0.29902972    -0.17200
H525        H  0.96846420  0.15880210  0.33865340     0.20800
H526        H  0.05788979  0.20257215  0.21026299     0.19100
H527        H  0.05413286  0.28392123  0.22213122     0.19100
H528        H  0.96779787  0.07488656  0.32439540     0.14900
C529        C  0.21369000  0.99091464  0.25165301     0.30400
C530        C  0.17141232  0.97188619  0.23263053    -0.36000
C531        C  0.14099430  0.98411910  0.24832652     0.16400
C532        C  0.15140628  0.01287441  0.28062489     0.22200
C533        C  0.19368458  0.03201052  0.29949721    -0.34100
C534        C  0.22416047  0.02002352  0.28364933     0.16300
O535        O  0.24689366  0.98346674  0.24251267    -0.26100
C536        C  0.27935032  0.00842617  0.26878747     0.06100
C537        C  0.26688402  0.03194566  0.29509780    -0.31000
O538        O  0.11817329  0.02002797  0.29022465    -0.22800
C539        C  0.08582217  0.99545303  0.26384092    -0.02800
C540        C  0.09833724  0.97263739  0.23679491    -0.17200
H541        H  0.16281820  0.94909620  0.20740395     0.20800
H542        H  0.20224809  0.05474416  0.32476540     0.19100
H543        H  0.28570304  0.05347072  0.31998554     0.19100
H544        H  0.07908731  0.95137161  0.21190970     0.14900
C545        C  0.98015634  0.84640440  0.23934182     0.30400
C546        C  0.96196845  0.80604924  0.21727523    -0.36000
C547        C  0.97144943  0.77329526  0.23167336     0.16400
C548        C  0.99740885  0.77996486  0.26523854     0.22200
C549        C  0.01560713  0.82035030  0.28737956    -0.34100
C550        C  0.00583190  0.85299654  0.27313843     0.16300
O551        O  0.97512524  0.88128795  0.23138687    -0.26100
C552        C  0.99798126  0.91075121  0.26036518     0.06100
C553        C  0.01760129  0.89487408  0.28740359    -0.31000
O554        O  0.00294464  0.74526240  0.27267095    -0.22800
C555        C  0.97993984  0.71568241  0.24368196    -0.02800
C556        C  0.95957071  0.73144718  0.21731616    -0.17200
H557        H  0.94179688  0.80057042  0.19074438     0.20800
H558        H  0.03600379  0.82594261  0.31377507     0.19100
H559        H  0.03738223  0.91170977  0.31371754     0.19100
H560        H  0.94016472  0.71528525  0.19067607     0.14900
C561        C  0.79061014  0.77865125  0.28570784     0.30400
C562        C  0.83325802  0.80496160  0.30335518    -0.36000
C563        C  0.86168993  0.84721572  0.28564871     0.16400
C564        C  0.84925209  0.86263564  0.25271272     0.22200
C565        C  0.80637011  0.83646343  0.23524589    -0.34100
C566        C  0.77782223  0.79414504  0.25307924     0.16300
O567        O  0.75896348  0.73784183  0.29716757    -0.26100
C568        C  0.72508795  0.72685319  0.27175597     0.06100
C569        C  0.73510353  0.76080477  0.24358668    -0.31000
O570        O  0.88166094  0.90291839  0.24069860    -0.22800
C571        C  0.91520636  0.91335524  0.26637982    -0.02800
C572        C  0.90445272  0.88005022  0.29514002    -0.17200
H573        H  0.84365979  0.79318647  0.32898559     0.20800
H574        H  0.79609056  0.84814356  0.20946804     0.19100
H575        H  0.71445143  0.76089339  0.21920864     0.19100
H576        H  0.92531775  0.88006877  0.31940480     0.14900
C577        C  0.87034186  0.01484772  0.23865050     0.30400
C578        C  0.84711027  0.02994782  0.21457101    -0.36000
C579        C  0.80192130  0.01458268  0.22517990     0.16400
C580        C  0.78086002  0.98625658  0.25726977     0.22200
C581        C  0.80425723  0.97141753  0.28163343    -0.34100
C582        C  0.84957291  0.98685851  0.27103832     0.16300
O583        O  0.91211928  0.02346314  0.23294413    -0.26100
C584        C  0.91841287  0.00058821  0.26193711     0.06100
C585        C  0.88075867  0.97771979  0.28696446    -0.31000
O586        O  0.73815083  0.97563029  0.26128576    -0.22800
C587        C  0.73173175  0.99770391  0.23150471    -0.02800
C588        C  0.77046752  0.02234488  0.20803024    -0.17200
H589        H  0.86300878  0.05169941  0.18893742     0.20800
H590        H  0.78809329  0.94893745  0.30678670     0.19100
H591        H  0.87653844  0.95632928  0.31237116     0.19100
H592        H  0.77496809  0.04271521  0.18179424     0.14900
C593        C  0.62076986  0.10706006  0.79021724     0.30400
C594        C  0.59823099  0.11586745  0.82104491    -0.36000
C595        C  0.62292700  0.15836733  0.83981857     0.16400
C596        C  0.66660788  0.19021531  0.82881412     0.22200
C597        C  0.68882605  0.18171137  0.79765451    -0.34100
C598        C  0.66435108  0.13914935  0.77920139     0.16300
O599        O  0.60615820  0.06791653  0.77157649    -0.26100
C600        C  0.64093984  0.07512258  0.74841486     0.06100
C601        C  0.67780700  0.11898426  0.75180578    -0.31000
O602        O  0.68436899  0.22650880  0.85193752    -0.22800
C603        C  0.65165949  0.21788707  0.87817263    -0.02800
C604        C  0.61259377  0.17605397  0.87195821    -0.17200
H605        H  0.56460882  0.09063012  0.83090723     0.20800
H606        H  0.72351159  0.20582983  0.78951688     0.19100
H607        H  0.71093516  0.13292772  0.73813168     0.19100
H608        H  0.58158669  0.16045090  0.88932815     0.14900
C609        C  0.66181416  0.17012100  0.08273131     0.30400
C610        C  0.68386889  0.14697849  0.09406718    -0.36000
C611        C  0.66343149  0.11518340  0.12465394     0.16400
C612        C  0.62383177  0.10630651  0.14332309     0.22200
C613        C  0.60144180  0.12978880  0.13189659    -0.34100
C614        C  0.62205683  0.16196400  0.10078154     0.16300
O615        O  0.67520696  0.20034428  0.05399326    -0.26100
C616        C  0.64389712  0.21229619  0.05288092     0.06100
C617        C  0.60973842  0.18960670  0.08146941    -0.31000
O618        O  0.61110370  0.07442766  0.17119292    -0.22800
C619        C  0.64338431  0.06327881  0.17021923    -0.02800
C620        C  0.67637891  0.08759090  0.14141927    -0.17200
H621        H  0.71485043  0.15312154  0.07967075     0.20800
H622        H  0.57015275  0.12320684  0.14593577     0.19100
H623        H  0.58007990  0.19248054  0.08673290     0.19100
H624        H  0.70563510  0.08509140  0.13321958     0.14900
C625        C  0.54476103  0.37016038  0.83854594     0.30400
C626        C  0.53281869  0.40013771  0.82114436    -0.36000
C627        C  0.49743590  0.38110635  0.79308521     0.16400
C628        C  0.47550646  0.33573128  0.78313888     0.22200
C629        C  0.48800168  0.30607800  0.79986031    -0.34100
C630        C  0.52322075  0.32503029  0.82778788     0.16300
O631        O  0.57429202  0.37972524  0.86761090    -0.26100
C632        C  0.57176248  0.34026275  0.87535579     0.06100
C633        C  0.54070220  0.30509969  0.85128277    -0.31000
O634        O  0.44029269  0.32380568  0.75997082    -0.22800
C635        C  0.43947618  0.36191933  0.75440782    -0.02800
C636        C  0.47466730  0.39900117  0.77397802    -0.17200
H637        H  0.54866744  0.43530443  0.83008794     0.20800
H638        H  0.47008938  0.27025885  0.79291446     0.19100
H639        H  0.53101460  0.26969255  0.85220539     0.19100
H640        H  0.48022647  0.43298487  0.77658257     0.14900
C641        C  0.81045910  0.47285083  0.83600489     0.30400
C642        C  0.82181181  0.50748968  0.80810128    -0.36000
C643        C  0.86528504  0.52696873  0.79139628     0.16400
C644        C  0.89566080  0.51317476  0.80090095     0.22200
C645        C  0.88397244  0.47779754  0.82842576    -0.34100
C646        C  0.84048755  0.45862465  0.84564115     0.16300
O647        O  0.77293313  0.45264658  0.85747705    -0.26100
C648        C  0.77875854  0.42499277  0.88134822     0.06100
C649        C  0.82012805  0.42711186  0.87522173    -0.31000
O650        O  0.93596433  0.53927532  0.78437401    -0.22800
C651        C  0.93118268  0.57026418  0.76431790    -0.02800
C652        C  0.88771896  0.56375922  0.76738710    -0.17200
H653        H  0.79910937  0.51985552  0.80128969     0.20800
H654        H  0.90776558  0.46743254  0.83718850     0.19100
H655        H  0.83379846  0.40924467  0.89121495     0.19100
H656        H  0.87517517  0.58470781  0.75545320     0.14900
C657        C  0.45717401  0.33058103  0.13141084     0.30400
C658        C  0.46381163  0.30419728  0.10322015    -0.36000
C659        C  0.50653748  0.32454107  0.08512134     0.16400
C660        C  0.54087161  0.36781958  0.09420073     0.22200
C661        C  0.53420963  0.39430474  0.12270599    -0.34100
C662        C  0.49102712  0.37397670  0.14068137     0.16300
O663        O  0.41913838  0.31852317  0.15059348    -0.26100
C664        C  0.42808350  0.35456838  0.17260148     0.06100
C665        C  0.47260303  0.39022755  0.16770856    -0.31000
O666        O  0.57789143  0.38008856  0.07270462    -0.22800
C667        C  0.56669178  0.34407891  0.04964464    -0.02800
C668        C  0.52274797  0.30869867  0.05618678    -0.17200
H669        H  0.43715623  0.27036529  0.09538680     0.20800
H670        H  0.56048971  0.42853945  0.12983208     0.19100
H671        H  0.48895867  0.42343255  0.18143725     0.19100
H672        H  0.50511185  0.27608164  0.04137474     0.14900
C673        C  0.86133610  0.52792957  0.14432526     0.30400
C674        C  0.82497952  0.51791261  0.11902093    -0.36000
C675        C  0.80788913  0.47780414  0.09693434     0.16400
C676        C  0.82492370  0.44896047  0.09956315     0.22200
C677        C  0.86156165  0.45907667  0.12507576    -0.34100
C678        C  0.87896423  0.49964463  0.14715300     0.16300
O679        O  0.88314087  0.56453512  0.16652226    -0.26100
C680        C  0.91555237  0.56025211  0.18417416     0.06100
C681        C  0.91450977  0.52023680  0.17317870    -0.31000
O682        O  0.80412246  0.41383674  0.07501984    -0.22800
C683        C  0.77373200  0.42080528  0.05645370    -0.02800
C684        C  0.77470931  0.46003816  0.06902116    -0.17200
H685        H  0.81145146  0.54032935  0.11620182     0.20800
H686        H  0.87593245  0.43733015  0.12707851     0.19100
H687        H  0.93696477  0.50827397  0.18217252     0.19100
H688        H  0.75437897  0.47392998  0.05845360     0.14900
C689        C  0.16804309  0.54895435  0.90566613     0.30400
C690        C  0.12445127  0.53374268  0.89005691    -0.36000
C691        C  0.10803556  0.49727976  0.86289703     0.16400
C692        C  0.13295845  0.47744146  0.85205976     0.22200
C693        C  0.17668722  0.49322540  0.86688465    -0.34100
C694        C  0.19297873  0.52942640  0.89389355     0.16300
O695        O  0.18851751  0.57967726  0.93405245    -0.26100
C696        C  0.22711286  0.57987784  0.94019962     0.06100
C697        C  0.23173366  0.54950417  0.91578780    -0.31000
O698        O  0.10999491  0.44135532  0.82945852    -0.22800
C699        C  0.06963454  0.43770605  0.82516474    -0.02800
C700        C  0.06656564  0.47200221  0.84508995    -0.17200
H701        H  0.10409057  0.54800573  0.89966752     0.20800
H702        H  0.19589940  0.47707726  0.85921832     0.19100
H703        H  0.25860842  0.54160798  0.91576949     0.19100
H704        H  0.03732521  0.47602818  0.84814369     0.14900
C705        C  0.10535863  0.48918966  0.19789889     0.30400
C706        C  0.13744676  0.53536790  0.19166375    -0.36000
C707        C  0.16544908  0.54532915  0.15766368     0.16400
C708        C  0.16204020  0.51206196  0.13198812     0.22200
C709        C  0.12952068  0.46651326  0.13761093    -0.34100
C710        C  0.10160176  0.45674206  0.17109871     0.16300
O711        O  0.07899415  0.47103765  0.22972431    -0.26100
C712        C  0.05827286  0.42651341  0.22278156     0.06100
C713        C  0.07047221  0.41615383  0.18623142    -0.31000
O714        O  0.19239164  0.52803360  0.10317559    -0.22800
C715        C  0.21556409  0.57234576  0.10985686    -0.02800
C716        C  0.20032327  0.58531774  0.14330262    -0.17200
H717        H  0.14135032  0.56138178  0.21246287     0.20800
H718        H  0.12707372  0.44025525  0.11786708     0.19100
H719        H  0.06042008  0.38311674  0.17385926     0.19100
H720        H  0.21324483  0.61905189  0.15531920     0.14900
C721        C  0.37639192  0.84549672  0.91394594     0.30400
C722        C  0.40415807  0.88810084  0.89590275    -0.36000
C723        C  0.38331570  0.90133307  0.86692632     0.16400
C724        C  0.33829037  0.87455769  0.85681448     0.22200
C725        C  0.31074288  0.83214829  0.87460803    -0.34100
C726        C  0.33150969  0.81892965  0.90326485     0.16300
O727        O  0.38829936  0.82632095  0.94206137    -0.26100
C728        C  0.35045639  0.78695344  0.94919543     0.06100
C729        C  0.31416334  0.78078445  0.92592446    -0.31000
O730        O  0.32482143  0.89423702  0.83097483    -0.22800
C731        C  0.36158629  0.93430851  0.82389046    -0.02800
C732        C  0.39927089  0.94048895  0.84530355    -0.17200
H733        H  0.43929058  0.90960968  0.90420046     0.20800
H734        H  0.27528748  0.81118768  0.86707631     0.19100
H735        H  0.27980794  0.75232297  0.92590590     0.19100
H736        H  0.43271632  0.97030123  0.84652327     0.14900
C737        C  0.53799816  0.66962887  0.85581544     0.30400
C738        C  0.52661376  0.69863474  0.87550445    -0.36000
C739        C  0.48962892  0.67794091  0.90156680     0.16400
C740        C  0.46555978  0.63178900  0.90824230     0.22200
C741        C  0.47687495  0.60254056  0.88825357    -0.34100
C742        C  0.51390297  0.62336410  0.86172878     0.16300
O743        O  0.57247486  0.68245433  0.83140520    -0.26100
C744        C  0.57088722  0.64413145  0.82100182     0.06100
C745        C  0.53478860  0.60596844  0.83883752    -0.31000
O746        O  0.43292780  0.62018302  0.93491069    -0.22800
C747        C  0.43610204  0.65945495  0.94491601    -0.02800
C748        C  0.47076810  0.69644189  0.92508967    -0.17200
H749        H  0.54568461  0.73497690  0.87112813     0.20800
H750        H  0.45849191  0.56632141  0.89333917     0.19100
H751        H  0.52630890  0.57097195  0.83669138     0.19100
H752        H  0.48109811  0.73189498  0.92818283     0.14900
C753        C  0.33948907  0.80865788  0.16836727     0.30400
C754        C  0.31427709  0.82211824  0.19142881    -0.36000
C755        C  0.33914426  0.86290219  0.21212902     0.16400
C756        C  0.38578406  0.88876434  0.21088519     0.22200
C757        C  0.41133765  0.87414132  0.18914651    -0.34100
C758        C  0.38628292  0.83329093  0.16787724     0.16300
O759        O  0.32257295  0.77545767  0.14216483    -0.26100
C760        C  0.35880700  0.77817017  0.12490809     0.06100
C761        C  0.39952210  0.81303589  0.14003182    -0.31000
O762        O  0.40122764  0.92876420  0.22813402    -0.22800
C763        C  0.36380830  0.92826027  0.24028952    -0.02800
C764        C  0.32442595  0.88760631  0.23174243    -0.17200
H765        H  0.27762408  0.80381969  0.19085187     0.20800
H766        H  0.44782566  0.89464022  0.18671497     0.19100
H767        H  0.43354582  0.82400338  0.12971197     0.19100
H768        H  0.28956032  0.87820215  0.23711280     0.14900
C769        C  0.44958456  0.61875634  0.15921344     0.30400
C770        C  0.46115761  0.58980611  0.17939569    -0.36000
C771        C  0.49978529  0.61116966  0.20406327     0.16400
C772        C  0.52449039  0.65761174  0.20872086     0.22200
C773        C  0.51263165  0.68623639  0.18922567    -0.34100
C774        C  0.47492053  0.66514256  0.16420274     0.16300
O775        O  0.41750651  0.60694001  0.13195650    -0.26100
C776        C  0.42309343  0.64644137  0.11926296     0.06100
C777        C  0.45820426  0.68359761  0.13839975    -0.31000
O778        O  0.56149850  0.67119229  0.22967587    -0.22800
C779        C  0.56129237  0.63330789  0.23897632    -0.02800
C780        C  0.52322874  0.59453517  0.22416150    -0.17200
H781        H  0.44272235  0.55349454  0.17469724     0.20800
H782        H  0.53299204  0.72277535  0.19172397     0.19100
H783        H  0.47062075  0.71920346  0.13298767     0.19100
H784        H  0.51562692  0.55975981  0.22550791     0.14900
loop_ 
_geom_bond_atom_site_label_1 
_geom_bond_atom_site_label_2 
_geom_bond_distance 
_geom_bond_site_symmetry_2 
_ccdc_geom_bond_type 
O1          Cr19   1.978   1_556  S
O1            C9   1.263       .  A
O2          Cr19   2.004   1_556  S
O2            C3   1.262       .  A
C3            O4   1.259       .  A
C3          C747   1.469       .  S
O4          Cr20   1.977   1_556  S
O5          Cr20   2.022       .  S
O5            C6   1.267   1_554  A
C6            O7   1.259       .  A
C6          C728   1.478       .  S
O7          Cr21   1.972   1_556  S
O8          Cr21   2.019   1_556  S
O8            C9   1.268       .  A
C9          C696   1.476       .  S
O10         Cr19   2.006       .  S
O10          C18   1.263       .  A
O11         Cr19   1.983       .  S
O11          C12   1.262       .  A
C12          O13   1.270       .  A
C12         C776   1.473       .  S
O13         Cr20   2.010       .  S
O14         Cr20   1.970       .  S
O14          C15   1.256       .  A
C15          O16   1.264       .  A
C15         C760   1.463       .  S
O16         Cr21   1.999       .  S
O17         Cr21   1.980       .  S
O17          C18   1.256       .  A
C18         C715   1.467       .  S
Cr19         O22   1.780       .  S
Cr20         O22   1.779       .  S
Cr21         O22   1.775       .  S
O23         Cr41   1.994   1_554  S
O23          C31   1.263       .  A
O24         Cr41   2.001       .  S
O24          C25   1.265   1_556  A
C25          O26   1.263       .  A
C25         C616   1.477       .  S
O26         Cr42   2.000   1_554  S
O27         Cr42   1.993       .  S
O27          C28   1.263   1_556  A
C28          O29   1.261       .  A
C28         C667   1.473       .  S
O29         Cr43   1.991   1_554  S
O30         Cr43   1.996   1_554  S
O30          C31   1.265       .  A
C31         C683   1.475       .  S
O32         Cr41   2.002       .  S
O32          C40   1.262       .  A
O33         Cr41   1.990       .  S
O33          C34   1.262       .  A
C34          O35   1.263       .  A
C34         C603   1.474       .  S
O35         Cr42   2.002       .  S
O36         Cr42   1.990       .  S
O36          C37   1.263       .  A
C37          O38   1.263       .  A
C37         C632   1.475       .  S
O38         Cr43   2.002       .  S
O39         Cr43   1.987       .  S
O39          C40   1.261       .  A
C40         C648   1.474       .  S
Cr41         O44   1.779       .  S
Cr42         O44   1.780       .  S
Cr43         O44   1.777       .  S
C45         C584   1.494   1_565  S
C45          C46   1.418       .  A
C45          C50   1.417   1_665  A
C46         C571   1.486       .  S
C46          C47   1.420   1_655  A
C47         C552   1.484   1_455  S
C47          C48   1.416       .  A
C48         C539   1.490       .  S
C48          C49   1.416   1_565  A
C49         C504   1.487       .  S
C49          C50   1.417       .  A
C50         C523   1.484       .  S
C51         C619   1.494       .  S
C51          C52   1.410   1_545  A
C51          C56   1.412       .  A
C52          C53   1.411       .  A
C52          H57   1.083       .  S
C53         C491   1.481       .  S
C53          C54   1.407       .  A
C54          C55   1.401       .  A
C54          H58   1.084       .  S
C55         C587   1.491       .  S
C55          C56   1.404   1_565  A
C56          H59   1.079       .  S
C60         C763   1.482       .  S
C60          C61   1.407   1_565  A
C60          C65   1.408       .  A
C61          C62   1.410       .  A
C61          H66   1.082   1_545  S
C62         C472   1.486       .  S
C62          C63   1.409       .  A
C63          C64   1.401       .  A
C63          H67   1.082       .  S
C64         C536   1.486       .  S
C64          C65   1.396   1_545  A
C65          H68   1.082       .  S
C69         C459   1.476       .  S
C69          C70   1.399       .  A
C69          C74   1.408       .  A
C70          C71   1.398       .  A
C70          H75   1.083       .  S
C71         C507   1.480       .  S
C71          C72   1.401       .  A
C72          C73   1.410       .  A
C72          H76   1.084       .  S
C73         C664   1.486       .  S
C73          C74   1.413       .  A
C74          H77   1.082       .  S
C78         C443   1.495       .  S
C78          C79   1.413       .  A
C78          C83   1.415   1_655  A
C79          C80   1.399   1_655  A
C79          H84   1.078       .  S
C80         C520   1.486       .  S
C80          C81   1.395       .  A
C81          C82   1.404       .  A
C81          H85   1.080       .  S
C82         C712   1.483       .  S
C82          C83   1.410       .  A
C83          H86   1.083   1_455  S
C87         C424   1.492       .  S
C87          C88   1.410       .  A
C87          C92   1.416       .  A
C88          C89   1.401       .  A
C88          H93   1.083       .  S
C89         C568   1.485       .  S
C89          C90   1.398       .  A
C90          C91   1.405       .  A
C90          H94   1.082       .  S
C91         C779   1.486       .  S
C91          C92   1.412       .  A
C92          H95   1.081       .  S
C96         C408   1.474       .  S
C96          C97   1.406   1_455  A
C96         C101   1.400       .  A
C97          C98   1.411       .  A
C97         H102   1.081       .  S
C98         C680   1.488       .  S
C98          C99   1.411       .  A
C99         C100   1.405       .  A
C99         H103   1.082       .  S
C100        C555   1.482       .  S
C100        C101   1.396   1_655  A
C101        H104   1.084       .  S
O105       Cr123   1.991       .  S
O105        C113   1.262       .  A
O106       Cr123   1.994       .  S
O106        C107   1.260       .  A
C107        O108   1.260       .  A
C107        C392   1.471       .  S
O108       Cr124   1.989       .  S
O109       Cr124   2.004       .  S
O109        C110   1.265       .  A
C110        O111   1.261       .  A
C110        C360   1.472       .  S
O111       Cr125   1.983       .  S
O112       Cr125   2.001       .  S
O112        C113   1.263       .  A
C113        C379   1.473       .  S
O114       Cr123   1.992       .  S
O114        C122   1.264       .  A
O115       Cr123   1.994       .  S
O115        C116   1.264       .  A
C116        O117   1.267       .  A
C116        C427   1.478       .  S
O117       Cr124   2.001       .  S
O118       Cr124   1.993       .  S
O118        C119   1.262       .  A
C119        O120   1.263       .  A
C119        C440   1.475       .  S
O120       Cr125   2.001       .  S
O121       Cr125   1.996       .  S
O121        C122   1.263       .  A
C122        C475   1.474       .  S
Cr123       O126   1.779       .  S
Cr124       O126   1.777       .  S
Cr125       O126   1.782       .  S
O127       Cr145   2.012       .  S
O127        C135   1.265       .  A
O128       Cr145   1.976       .  S
O128        C129   1.259       .  A
C129        O130   1.262       .  A
C129        C411   1.465       .  S
O130       Cr146   1.998       .  S
O131       Cr146   1.991       .  S
O131        C132   1.261       .  A
C132        O133   1.262       .  A
C132        C456   1.473       .  S
O133       Cr147   2.003       .  S
O134       Cr147   1.984       .  S
O134        C135   1.262       .  A
C135        C488   1.476       .  S
O136       Cr145   1.991       .  S
O136        C144   1.262       .  A
O137       Cr145   2.004       .  S
O137        C138   1.266       .  A
C138        O139   1.263       .  A
C138        C331   1.478       .  S
O139       Cr146   1.997       .  S
O140       Cr146   1.996       .  S
O140        C141   1.266       .  A
C141        O142   1.263       .  A
C141        C315   1.474       .  S
O142       Cr147   1.991       .  S
O143       Cr147   2.004       .  S
O143        C144   1.265       .  A
C144        C347   1.475       .  S
Cr145       O148   1.778       .  S
Cr146       O148   1.780       .  S
Cr147       O148   1.777       .  S
C149        C280   1.490       .  S
C149        C150   1.418   1_545  A
C149        C154   1.419       .  A
C150        C299   1.494       .  S
C150        C151   1.417   1_455  A
C151        C248   1.479       .  S
C151        C152   1.415   1_565  A
C152        C267   1.482       .  S
C152        C153   1.414   1_655  A
C153        C216   1.492       .  S
C153        C154   1.414       .  A
C154        C232   1.477       .  S
C155        C731   1.485       .  S
C155        C156   1.406       .  A
C155        C160   1.410   1_565  A
C156        C157   1.403       .  A
C156        H161   1.082       .  S
C157        C283   1.484       .  S
C157        C158   1.400   1_565  A
C158        C159   1.406       .  A
C158        H162   1.083       .  S
C159        C376   1.481       .  S
C159        C160   1.408       .  A
C160        H163   1.083       .  S
C164        C600   1.479       .  S
C164        C165   1.403       .  A
C164        C169   1.410       .  A
C165        C166   1.397       .  A
C165        H170   1.084       .  S
C166        C264   1.482   1_545  S
C166        C167   1.401   1_545  A
C167        C168   1.410       .  A
C167        H171   1.080       .  S
C168        C344   1.490       .  S
C168        C169   1.412   1_565  A
C169        H172   1.083       .  S
C173        C363   1.487       .  S
C173        C174   1.411       .  A
C173        C178   1.406       .  A
C174        C175   1.413   1_655  A
C174        H179   1.083       .  S
C175        C699   1.486       .  S
C175        C176   1.408       .  A
C176        C177   1.402       .  A
C176        H180   1.082       .  S
C177        C219   1.484       .  S
C177        C178   1.397   1_455  A
C178        H181   1.082       .  S
C182        C312   1.487       .  S
C182        C183   1.415       .  A
C182        C187   1.408       .  A
C183        C184   1.412       .  A
C183        H188   1.082       .  S
C184        C635   1.481       .  S
C184        C185   1.401       .  A
C185        C186   1.396       .  A
C185        H189   1.083       .  S
C186        C235   1.476       .  S
C186        C187   1.396       .  A
C187        H190   1.084       .  S
C191        C328   1.494       .  S
C191        C192   1.412       .  A
C191        C196   1.411       .  A
C192        C193   1.404       .  A
C192        H197   1.079       .  S
C193        C296   1.490       .  S
C193        C194   1.399   1_455  A
C194        C195   1.407       .  A
C194        H198   1.083       .  S
C195        C651   1.482       .  S
C195        C196   1.410   1_655  A
C196        H199   1.083       .  S
C200        C395   1.479       .  S
C200        C201   1.403       .  A
C200        C205   1.408       .  A
C201        C202   1.397       .  A
C201        H206   1.082       .  S
C202        C251   1.479       .  S
C202        C203   1.397       .  A
C203        C204   1.407       .  A
C203        H207   1.084       .  S
C204        C744   1.482       .  S
C204        C205   1.413       .  A
C205        H208   1.083       .  S
C209        C214   1.379   1_455  A
C209        C210   1.404       .  A
C209        O215   1.318       .  A
C210        C211   1.403       .  A
C210        H221   1.082       .  S
C211        C220   1.363       .  A
C211        C212   1.379   1_455  A
C212        C213   1.404       .  A
C212        O218   1.317       .  A
C213        C214   1.402       .  A
C213        H222   1.082       .  S
C214        C217   1.362       .  A
O215        C216   1.332       .  A
C216        C217   1.394   1_455  A
C217        H223   1.082       .  S
O218        C219   1.333   1_655  A
C219        C220   1.395       .  A
C220        H224   1.082       .  S
C225        C230   1.381       .  A
C225        C226   1.400       .  A
C225        O231   1.318       .  A
C226        C227   1.400       .  A
C226        H237   1.082       .  S
C227        C236   1.357       .  A
C227        C228   1.380       .  A
C228        C229   1.402       .  A
C228        O234   1.318       .  A
C229        C230   1.402       .  A
C229        H238   1.083       .  S
C230        C233   1.358       .  A
O231        C232   1.328       .  A
C232        C233   1.391       .  A
C233        H239   1.083       .  S
O234        C235   1.331       .  A
C235        C236   1.392       .  A
C236        H240   1.082       .  S
C241        C246   1.381       .  A
C241        C242   1.399       .  A
C241        O247   1.316       .  A
C242        C243   1.399       .  A
C242        H253   1.083       .  S
C243        C252   1.355       .  A
C243        C244   1.379       .  A
C244        C245   1.403       .  A
C244        O250   1.319       .  A
C245        C246   1.402       .  A
C245        H254   1.083       .  S
C246        C249   1.358       .  A
O247        C248   1.328       .  A
C248        C249   1.392       .  A
C249        H255   1.083       .  S
O250        C251   1.332       .  A
C251        C252   1.393       .  A
C252        H256   1.082       .  S
C257        C262   1.379   1_545  A
C257        C258   1.403       .  A
C257        O263   1.317       .  A
C258        C259   1.401       .  A
C258        H269   1.083       .  S
C259        C268   1.362       .  A
C259        C260   1.380   1_545  A
C260        C261   1.401       .  A
C260        O266   1.315       .  A
C261        C262   1.400       .  A
C261        H270   1.083       .  S
C262        C265   1.360       .  A
O263        C264   1.332   1_545  A
C264        C265   1.394       .  A
C265        H271   1.082       .  S
O266        C267   1.330   1_565  A
C267        C268   1.391       .  A
C268        H272   1.082       .  S
C273        C278   1.379   1_565  A
C273        C274   1.403       .  A
C273        O279   1.318       .  A
C274        C275   1.402       .  A
C274        H285   1.082       .  S
C275        C284   1.361       .  A
C275        C276   1.379   1_565  A
C276        C277   1.404       .  A
C276        O282   1.319       .  A
C277        C278   1.403       .  A
C277        H286   1.082       .  S
C278        C281   1.362       .  A
O279        C280   1.332   1_565  A
C280        C281   1.393       .  A
C281        H287   1.082       .  S
O282        C283   1.333   1_545  A
C283        C284   1.395       .  A
C284        H288   1.082       .  S
C289        C294   1.378   1_655  A
C289        C290   1.407       .  A
C289        O295   1.321       .  A
C290        C291   1.406       .  A
C290        H301   1.083       .  S
C291        C300   1.365       .  A
C291        C292   1.379   1_655  A
C292        C293   1.402       .  A
C292        O298   1.317       .  A
C293        C294   1.401       .  A
C293        H302   1.083       .  S
C294        C297   1.360       .  A
O295        C296   1.335   1_655  A
C296        C297   1.395       .  A
C297        H303   1.082       .  S
O298        C299   1.331       .  A
C299        C300   1.396   1_455  A
C300        H304   1.082       .  S
C305        C310   1.379       .  A
C305        C306   1.397       .  A
C305        O311   1.312       .  A
C306        C307   1.396       .  A
C306        H317   1.083       .  S
C307        C316   1.353       .  A
C307        C308   1.380       .  A
C308        C309   1.411       .  A
C308        O314   1.326       .  A
C309        C310   1.411       .  A
C309        H318   1.082       .  S
C310        C313   1.372       .  A
O311        C312   1.330       .  A
C312        C313   1.399       .  A
C313        H319   1.082       .  S
O314        C315   1.335       .  A
C315        C316   1.389       .  A
C316        H320   1.083       .  S
C321        C326   1.377       .  A
C321        C322   1.415       .  A
C321        O327   1.329       .  A
C322        C323   1.415       .  A
C322        H333   1.082       .  S
C323        C332   1.376       .  A
C323        C324   1.380       .  A
C324        C325   1.397       .  A
C324        O330   1.314       .  A
C325        C326   1.396       .  A
C325        H334   1.082       .  S
C326        C329   1.352       .  A
O327        C328   1.339       .  A
C328        C329   1.393       .  A
C329        H335   1.081       .  S
O330        C331   1.328       .  A
C331        C332   1.399       .  A
C332        H336   1.082       .  S
C337        C342   1.378       .  A
C337        C338   1.412       .  A
C337        O343   1.327       .  A
C338        C339   1.412       .  A
C338        H349   1.082       .  S
C339        C348   1.372       .  A
C339        C340   1.380       .  A
C340        C341   1.398       .  A
C340        O346   1.315       .  A
C341        C342   1.398       .  A
C341        H350   1.082       .  S
C342        C345   1.354       .  A
O343        C344   1.337       .  A
C344        C345   1.394       .  A
C345        H351   1.082       .  S
O346        C347   1.329       .  A
C347        C348   1.396       .  A
C348        H352   1.082       .  S
C353        C358   1.381       .  A
C353        C354   1.400       .  A
C353        O359   1.319       .  A
C354        C355   1.401       .  A
C354        H365   1.083       .  S
C355        C364   1.355       .  A
C355        C356   1.380       .  A
C356        C357   1.406       .  A
C356        O362   1.324       .  A
C357        C358   1.407       .  A
C357        H366   1.083       .  S
C358        C361   1.363       .  A
O359        C360   1.330       .  A
C360        C361   1.394       .  A
C361        H367   1.083       .  S
O362        C363   1.334       .  A
C363        C364   1.395       .  A
C364        H368   1.082       .  S
C369        C374   1.380       .  A
C369        C370   1.405       .  A
C369        O375   1.322       .  A
C370        C371   1.405       .  A
C370        H381   1.082       .  S
C371        C380   1.362       .  A
C371        C372   1.381       .  A
C372        C373   1.402       .  A
C372        O378   1.321       .  A
C373        C374   1.403       .  A
C373        H382   1.082       .  S
C374        C377   1.359       .  A
O375        C376   1.332       .  A
C376        C377   1.393       .  A
C377        H383   1.082       .  S
O378        C379   1.330       .  A
C379        C380   1.393       .  A
C380        H384   1.082       .  S
C385        C390   1.381       .  A
C385        C386   1.398       .  A
C385        O391   1.318       .  A
C386        C387   1.399       .  A
C386        H397   1.082       .  S
C387        C396   1.352       .  A
C387        C388   1.380       .  A
C388        C389   1.407       .  A
C388        O394   1.325       .  A
C389        C390   1.408       .  A
C389        H398   1.082       .  S
C390        C393   1.364       .  A
O391        C392   1.328       .  A
C392        C393   1.395       .  A
C393        H399   1.082       .  S
O394        C395   1.333       .  A
C395        C396   1.391       .  A
C396        H400   1.082       .  S
C401        C406   1.380       .  A
C401        C402   1.399       .  A
C401        O407   1.311       .  A
C402        C403   1.396       .  A
C402        H413   1.083       .  S
C403        C412   1.358       .  A
C403        C404   1.380       .  A
C404        C405   1.406       .  A
C404        O410   1.318       .  A
C405        C406   1.404       .  A
C405        H414   1.083       .  S
C406        C409   1.367       .  A
O407        C408   1.329       .  A
C408        C409   1.393       .  A
C409        H415   1.082       .  S
O410        C411   1.332       .  A
C411        C412   1.388       .  A
C412        H416   1.083       .  S
C417        C422   1.378       .  A
C417        C418   1.401       .  A
C417        O423   1.315       .  A
C418        C419   1.400       .  A
C418        H429   1.082       .  S
C419        C428   1.357       .  A
C419        C420   1.380       .  A
C420        C421   1.411       .  A
C420        O426   1.326       .  A
C421        C422   1.411       .  A
C421        H430   1.082       .  S
C422        C425   1.371       .  A
O423        C424   1.332       .  A
C424        C425   1.399       .  A
C425        H431   1.081       .  S
O426        C427   1.335       .  A
C427        C428   1.391       .  A
C428        H432   1.083       .  S
C433        C438   1.380       .  A
C433        C434   1.398       .  A
C433        O439   1.315       .  A
C434        C435   1.398       .  A
C434        H445   1.082       .  S
C435        C444   1.353       .  A
C435        C436   1.377       .  A
C436        C437   1.412       .  A
C436        O442   1.327       .  A
C437        C438   1.412       .  A
C437        H446   1.082       .  S
C438        C441   1.371       .  A
O439        C440   1.329       .  A
C440        C441   1.396       .  A
C441        H447   1.082       .  S
O442        C443   1.337       .  A
C443        C444   1.396       .  A
C444        H448   1.080       .  S
C449        C454   1.380       .  A
C449        C450   1.407       .  A
C449        O455   1.319       .  A
C450        C451   1.404       .  A
C450        H461   1.082       .  S
C451        C460   1.367       .  A
C451        C452   1.380       .  A
C452        C453   1.403       .  A
C452        O458   1.315       .  A
C453        C454   1.401       .  A
C453        H462   1.082       .  S
C454        C457   1.364       .  A
O455        C456   1.333       .  A
C456        C457   1.391       .  A
C457        H463   1.082       .  S
O458        C459   1.331       .  A
C459        C460   1.392       .  A
C460        H464   1.082       .  S
C465        C470   1.379       .  A
C465        C466   1.395       .  A
C465        O471   1.311       .  A
C466        C467   1.394       .  A
C466        H477   1.082       .  S
C467        C476   1.350       .  A
C467        C468   1.380       .  A
C468        C469   1.413       .  A
C468        O474   1.328       .  A
C469        C470   1.412       .  A
C469        H478   1.081       .  S
C470        C473   1.372       .  A
O471        C472   1.328       .  A
C472        C473   1.401       .  A
C473        H479   1.081       .  S
O474        C475   1.336       .  A
C475        C476   1.388       .  A
C476        H480   1.083       .  S
C481        C486   1.380       .  A
C481        C482   1.409       .  A
C481        O487   1.323       .  A
C482        C483   1.408       .  A
C482        H493   1.082       .  S
C483        C492   1.369       .  A
C483        C484   1.380       .  A
C484        C485   1.402       .  A
C484        O490   1.317       .  A
C485        C486   1.400       .  A
C485        H494   1.083       .  S
C486        C489   1.361       .  A
O487        C488   1.334       .  A
C488        C489   1.390       .  A
C489        H495   1.083       .  S
O490        C491   1.331       .  A
C491        C492   1.395       .  A
C492        H496   1.082       .  S
C497        C502   1.380       .  A
C497        C498   1.401       .  A
C497        O503   1.319       .  A
C498        C499   1.402       .  A
C498        H509   1.082       .  S
C499        C508   1.357       .  A
C499        C500   1.380       .  A
C500        C501   1.402       .  A
C500        O506   1.319       .  A
C501        C502   1.402       .  A
C501        H510   1.082       .  S
C502        C505   1.358       .  A
O503        C504   1.331       .  A
C504        C505   1.392       .  A
C505        H511   1.082       .  S
O506        C507   1.331       .  A
C507        C508   1.395       .  A
C508        H512   1.082       .  S
C513        C518   1.379       .  A
C513        C514   1.402   1_455  A
C513        O519   1.318   1_455  A
C514        C515   1.402       .  A
C514        H525   1.082       .  S
C515        C524   1.359       .  A
C515        C516   1.380   1_655  A
C516        C517   1.403       .  A
C516        O522   1.319       .  A
C517        C518   1.403       .  A
C517        H526   1.082       .  S
C518        C521   1.359       .  A
O519        C520   1.332   1_655  A
C520        C521   1.397       .  A
C521        H527   1.081       .  S
O522        C523   1.331       .  A
C523        C524   1.391   1_455  A
C524        H528   1.082       .  S
C529        C534   1.379   1_565  A
C529        C530   1.405       .  A
C529        O535   1.319       .  A
C530        C531   1.404       .  A
C530        H541   1.083       .  S
C531        C540   1.363       .  A
C531        C532   1.380   1_565  A
C532        C533   1.403       .  A
C532        O538   1.317       .  A
C533        C534   1.402       .  A
C533        H542   1.083       .  S
C534        C537   1.361       .  A
O535        C536   1.334   1_565  A
C536        C537   1.394       .  A
C537        H543   1.082       .  S
O538        C539   1.331   1_545  A
C539        C540   1.394       .  A
C540        H544   1.082       .  S
C545        C550   1.380   1_655  A
C545        C546   1.402       .  A
C545        O551   1.317       .  A
C546        C547   1.401       .  A
C546        H557   1.082       .  S
C547        C556   1.362       .  A
C547        C548   1.379       .  A
C548        C549   1.404   1_655  A
C548        O554   1.317   1_655  A
C549        C550   1.402       .  A
C549        H558   1.082       .  S
C550        C553   1.362       .  A
O551        C552   1.330       .  A
C552        C553   1.392   1_655  A
C553        H559   1.082       .  S
O554        C555   1.333   1_455  A
C555        C556   1.393       .  A
C556        H560   1.082       .  S
C561        C566   1.379       .  A
C561        C562   1.401       .  A
C561        O567   1.318       .  A
C562        C563   1.401       .  A
C562        H573   1.082       .  S
C563        C572   1.357       .  A
C563        C564   1.380       .  A
C564        C565   1.404       .  A
C564        O570   1.320       .  A
C565        C566   1.404       .  A
C565        H574   1.082       .  S
C566        C569   1.361       .  A
O567        C568   1.331       .  A
C568        C569   1.397       .  A
C569        H575   1.082       .  S
O570        C571   1.332       .  A
C571        C572   1.391       .  A
C572        H576   1.082       .  S
C577        C582   1.380   1_545  A
C577        C578   1.403       .  A
C577        O583   1.319       .  A
C578        C579   1.403       .  A
C578        H589   1.083       .  S
C579        C588   1.361       .  A
C579        C580   1.378   1_545  A
C580        C581   1.407       .  A
C580        O586   1.322       .  A
C581        C582   1.406       .  A
C581        H590   1.083       .  S
C582        C585   1.365       .  A
O583        C584   1.331       .  A
C584        C585   1.395   1_545  A
C585        H591   1.083       .  S
O586        C587   1.335       .  A
C587        C588   1.396   1_565  A
C588        H592   1.082       .  S
C593        C598   1.381       .  A
C593        C594   1.406       .  A
C593        O599   1.324       .  A
C594        C595   1.406       .  A
C594        H605   1.082       .  S
C595        C604   1.362       .  A
C595        C596   1.381       .  A
C596        C597   1.402       .  A
C596        O602   1.320       .  A
C597        C598   1.403       .  A
C597        H606   1.082       .  S
C598        C601   1.357       .  A
O599        C600   1.332       .  A
C600        C601   1.393       .  A
C601        H607   1.083       .  S
O602        C603   1.330       .  A
C603        C604   1.394       .  A
C604        H608   1.082       .  S
C609        C614   1.380       .  A
C609        C610   1.396       .  A
C609        O615   1.312       .  A
C610        C611   1.395       .  A
C610        H621   1.082       .  S
C611        C620   1.352       .  A
C611        C612   1.377       .  A
C612        C613   1.416       .  A
C612        O618   1.329       .  A
C613        C614   1.415       .  A
C613        H622   1.082       .  S
C614        C617   1.377       .  A
O615        C616   1.327       .  A
C616        C617   1.400       .  A
C617        H623   1.082       .  S
O618        C619   1.339       .  A
C619        C620   1.392       .  A
C620        H624   1.082       .  S
C625        C630   1.380       .  A
C625        C626   1.409       .  A
C625        O631   1.321       .  A
C626        C627   1.406       .  A
C626        H637   1.082       .  S
C627        C636   1.370       .  A
C627        C628   1.380       .  A
C628        C629   1.403       .  A
C628        O634   1.314       .  A
C629        C630   1.400       .  A
C629        H638   1.082       .  S
C630        C633   1.363       .  A
O631        C632   1.334       .  A
C632        C633   1.390       .  A
C633        H639   1.082       .  S
O634        C635   1.331       .  A
C635        C636   1.394       .  A
C636        H640   1.082       .  S
C641        C646   1.381       .  A
C641        C642   1.400       .  A
C641        O647   1.319       .  A
C642        C643   1.401       .  A
C642        H653   1.081       .  S
C643        C652   1.356       .  A
C643        C644   1.380       .  A
C644        C645   1.408       .  A
C644        O650   1.325       .  A
C645        C646   1.409       .  A
C645        H654   1.081       .  S
C646        C649   1.365       .  A
O647        C648   1.329       .  A
C648        C649   1.395       .  A
C649        H655   1.082       .  S
O650        C651   1.334       .  A
C651        C652   1.392       .  A
C652        H656   1.082       .  S
C657        C662   1.379       .  A
C657        C658   1.399       .  A
C657        O663   1.314       .  A
C658        C659   1.398       .  A
C658        H669   1.083       .  S
C659        C668   1.355       .  A
C659        C660   1.380       .  A
C660        C661   1.409       .  A
C660        O666   1.325       .  A
C661        C662   1.409       .  A
C661        H670   1.082       .  S
C662        C665   1.368       .  A
O663        C664   1.331       .  A
C664        C665   1.398       .  A
C665        H671   1.082       .  S
O666        C667   1.334       .  A
C667        C668   1.390       .  A
C668        H672   1.083       .  S
C673        C678   1.379       .  A
C673        C674   1.399       .  A
C673        O679   1.315       .  A
C674        C675   1.399       .  A
C674        H685   1.082       .  S
C675        C684   1.355       .  A
C675        C676   1.380       .  A
C676        C677   1.410       .  A
C676        O682   1.326       .  A
C677        C678   1.410       .  A
C677        H686   1.082       .  S
C678        C681   1.368       .  A
O679        C680   1.331       .  A
C680        C681   1.399       .  A
C681        H687   1.081       .  S
O682        C683   1.334       .  A
C683        C684   1.389       .  A
C684        H688   1.083       .  S
C689        C694   1.380       .  A
C689        C690   1.410       .  A
C689        O695   1.323       .  A
C690        C691   1.409       .  A
C690        H701   1.081       .  S
C691        C700   1.371       .  A
C691        C692   1.379       .  A
C692        C693   1.401       .  A
C692        O698   1.316       .  A
C693        C694   1.400       .  A
C693        H702   1.081       .  S
C694        C697   1.360       .  A
O695        C696   1.334       .  A
C696        C697   1.390       .  A
C697        H703   1.082       .  S
O698        C699   1.331       .  A
C699        C700   1.397       .  A
C700        H704   1.082       .  S
C705        C710   1.380       .  A
C705        C706   1.410       .  A
C705        O711   1.327       .  A
C706        C707   1.410       .  A
C706        H717   1.082       .  S
C707        C716   1.368       .  A
C707        C708   1.381       .  A
C708        C709   1.395       .  A
C708        O714   1.314       .  A
C709        C710   1.396       .  A
C709        H718   1.082       .  S
C710        C713   1.349       .  A
O711        C712   1.335       .  A
C712        C713   1.392       .  A
C713        H719   1.083       .  S
O714        C715   1.326       .  A
C715        C716   1.395       .  A
C716        H720   1.082       .  S
C721        C726   1.380       .  A
C721        C722   1.410       .  A
C721        O727   1.325       .  A
C722        C723   1.409       .  A
C722        H733   1.082       .  S
C723        C732   1.369       .  A
C723        C724   1.379       .  A
C724        C725   1.401       .  A
C724        O730   1.316       .  A
C725        C726   1.400       .  A
C725        H734   1.082       .  S
C726        C729   1.358       .  A
O727        C728   1.335       .  A
C728        C729   1.391       .  A
C729        H735   1.083       .  S
O730        C731   1.331       .  A
C731        C732   1.397       .  A
C732        H736   1.082       .  S
C737        C742   1.379       .  A
C737        C738   1.399       .  A
C737        O743   1.312       .  A
C738        C739   1.396       .  A
C738        H749   1.082       .  S
C739        C748   1.358       .  A
C739        C740   1.380       .  A
C740        C741   1.409       .  A
C740        O746   1.321       .  A
C741        C742   1.407       .  A
C741        H750   1.082       .  S
C742        C745   1.369       .  A
O743        C744   1.330       .  A
C744        C745   1.397       .  A
C745        H751   1.082       .  S
O746        C747   1.334       .  A
C747        C748   1.388       .  A
C748        H752   1.083       .  S
C753        C758   1.382       .  A
C753        C754   1.395       .  A
C753        O759   1.314       .  A
C754        C755   1.396       .  A
C754        H765   1.082       .  S
C755        C764   1.351       .  A
C755        C756   1.380       .  A
C756        C757   1.407       .  A
C756        O762   1.323       .  A
C757        C758   1.407       .  A
C757        H766   1.082       .  S
C758        C761   1.365       .  A
O759        C760   1.326       .  A
C760        C761   1.393       .  A
C761        H767   1.082       .  S
O762        C763   1.334       .  A
C763        C764   1.391       .  A
C764        H768   1.082       .  S
C769        C774   1.380       .  A
C769        C770   1.412       .  A
C769        O775   1.325       .  A
C770        C771   1.411       .  A
C770        H781   1.083       .  S
C771        C780   1.374       .  A
C771        C772   1.379       .  A
C772        C773   1.398       .  A
C772        O778   1.312       .  A
C773        C774   1.396       .  A
C773        H782   1.083       .  S
C774        C777   1.357       .  A
O775        C776   1.335       .  A
C776        C777   1.387       .  A
C777        H783   1.083       .  S
O778        C779   1.330       .  A
C779        C780   1.398       .  A
C780        H784   1.082       .  S
