geometry optimzed in LAMMPS
_audit_creation_date              2020-11-30 
_audit_creation_method            'lammps2cif' 
_symmetry_space_group_name_H-M    'P1' 
_symmetry_Int_Tables_number       1 
_symmetry_cell_setting            triclinic 
loop_ 
_symmetry_equiv_pos_as_xyz 
  x,y,z 
_cell_length_a                    38.82318444 
_cell_length_b                    39.654736185508234 
_cell_length_c                    37.473474245939485 
_cell_angle_alpha                 90.63455850912669 
_cell_angle_beta                  89.67233397023719 
_cell_angle_gamma                 89.40203015707188 
loop_ 
_atom_site_label 
_atom_site_type_symbol 
_atom_site_fract_x 
_atom_site_fract_y 
_atom_site_fract_z 
_atom_site_charge 
O1          O  0.48145855  0.45814715  0.03897865    -0.72700
O2          O  0.49023891  0.05244648  0.00728409    -0.73700
O3          O  0.43751289  0.50229088  0.00560268    -0.62300
O4          O  0.03637026  0.50468590  0.03980061    -0.70700
O5          O  0.05151374  0.48632662  0.48591679    -0.70200
O6          O  0.45539568  0.48584337  0.45188275    -0.61500
O7          O  0.50667803  0.03574467  0.45308584    -0.74000
O8          O  0.49592406  0.43863519  0.48515482    -0.72800
Cu9        Cu  0.48605480  0.50541680  0.02470421     1.04600
Cu10       Cu  0.50348257  0.48632538  0.46720160     1.04300
C11         C  0.48465503  0.43372249  0.01686774     0.93500
C12         C  0.49842380  0.05935305  0.47526040     0.92700
C13         C  0.43115295  0.49045660  0.47439234     0.84800
C14         C  0.05964003  0.49400126  0.01798139     0.91100
O15         O  0.30287889  0.22811901  0.41098234    -0.72700
O16         O  0.20641753  0.23293242  0.37780690    -0.73700
O17         O  0.25793934  0.18248055  0.37953455    -0.62300
O18         O  0.25344809  0.28067422  0.40902048    -0.70700
O19         O  0.27236973  0.29459734  0.35517957    -0.70200
O20         O  0.27628392  0.19746578  0.32574430    -0.61500
O21         O  0.22315806  0.24792477  0.32360666    -0.74000
O22         O  0.32294424  0.24128429  0.35746744    -0.72800
Cu23       Cu  0.25424637  0.23087384  0.39606469     1.04600
Cu24       Cu  0.27400254  0.24619333  0.33849934     1.04300
C25         C  0.32818349  0.23191685  0.38963269     0.93500
C26         C  0.19928390  0.23924950  0.34538964     0.92700
C27         C  0.26983681  0.17477907  0.34859223     0.84800
C28         C  0.26414477  0.30285915  0.38715513     0.91100
C29         C  0.20250700  0.45933841  0.06102153    -0.02200
C30         C  0.22518213  0.05427802  0.17929475    -0.02200
C31         C  0.29461851  0.44217460  0.43318207    -0.02200
C32         C  0.30970514  0.03533151  0.30946113    -0.02200
O33         O  0.05709885  0.03117869  0.19472258    -0.72700
O34         O  0.46238987  0.02746407  0.23406567    -0.73700
O35         O  0.01381817  0.07818485  0.22937752    -0.62300
O36         O  0.00870159  0.47803063  0.20137167    -0.70700
O37         O  0.02934636  0.46580561  0.25474802    -0.70200
O38         O  0.03195628  0.06219517  0.28275115    -0.61500
O39         O  0.48084433  0.01213738  0.28743137    -0.74000
O40         O  0.07799593  0.01743756  0.24779400    -0.72800
Cu41       Cu  0.00947681  0.02901848  0.21299647     1.04600
Cu42       Cu  0.03058154  0.01375367  0.26996340     1.04300
C43         C  0.08249589  0.02617549  0.21528961     0.93500
C44         C  0.45621331  0.02061621  0.26664372     0.92700
C45         C  0.02458322  0.08540030  0.26082580     0.84800
C46         C  0.02004541  0.45629573  0.22376439     0.91100
O47         O  0.29528854  0.27634103  0.14345515    -0.72700
O48         O  0.19923415  0.27055868  0.18172926    -0.73700
O49         O  0.25458020  0.22237448  0.17601053    -0.62300
O50         O  0.23686092  0.32068630  0.14929258    -0.70700
O51         O  0.21946917  0.30203190  0.09655110    -0.70200
O52         O  0.23848488  0.20663806  0.12171538    -0.61500
O53         O  0.18104522  0.25247477  0.12879991    -0.74000
O54         O  0.27832660  0.25962055  0.08983543    -0.72800
Cu55       Cu  0.24756579  0.27265159  0.16454126     1.04600
Cu56       Cu  0.22903636  0.25427461  0.10749443     1.04300
C57         C  0.30181397  0.27119207  0.11033650     0.93500
C58         C  0.17482354  0.26372455  0.16037539     0.92700
C59         C  0.24789397  0.19897553  0.15316930     0.84800
C60         C  0.22308490  0.32619323  0.11889194     0.91100
C61         C  0.05064429  0.22150499  0.31769577    -0.02200
C62         C  0.46720292  0.20238412  0.44674610    -0.02200
C63         C  0.03202791  0.30812289  0.19357077    -0.02200
C64         C  0.44441734  0.29986670  0.06553393    -0.02200
C65         C  0.01029477  0.29882905  0.16003478    -0.05200
C66         C  0.47549100  0.28895733  0.16289492    -0.32600
C67         C  0.45516541  0.28279777  0.13284706     0.36600
C68         C  0.46727052  0.29189790  0.09863142    -0.05600
C69         C  0.50287543  0.29768173  0.09524641    -0.32500
C70         C  0.52339927  0.30353205  0.12492891     0.36500
H71         H  0.96321885  0.28731683  0.18881485     0.16900
O72         O  0.42388093  0.26788098  0.13781774    -0.60000
H73         H  0.51389213  0.30298824  0.06936771     0.16900
O74         O  0.05544384  0.31653435  0.11878855    -0.60100
H75         H  0.55206436  0.34135989  0.11901464     0.43900
H76         H  0.42826797  0.24340568  0.13415841     0.43900
C77         C  0.47009444  0.22530171  0.98111187    -0.05200
C78         C  0.48198814  0.25877941  0.97846105    -0.32600
C79         C  0.47764519  0.28241899  0.00615759     0.36600
C80         C  0.45787108  0.27413706  0.03671074    -0.05600
C81         C  0.45270261  0.23955335  0.04252920    -0.32500
C82         C  0.45890747  0.21527914  0.01571480     0.36500
H83         H  0.49455072  0.26774953  0.45468467     0.16900
O84         O  0.49556902  0.31208808  0.00430891    -0.60000
H85         H  0.44127780  0.23145885  0.06740522     0.16900
O86         O  0.44964811  0.18252302  0.02239509    -0.60100
H87         H  0.46212999  0.17571751  0.04425265     0.43900
H88         H  0.49073360  0.32192213  0.98059852     0.43900
C89         C  0.03217089  0.22950312  0.35436202    -0.05200
C90         C  0.04769523  0.22092379  0.38712461    -0.32600
C91         C  0.02796348  0.21337181  0.41736332     0.36600
C92         C  0.99167323  0.21717372  0.41699568    -0.05600
C93         C  0.47930893  0.23817912  0.38955753    -0.32500
C94         C  0.99710538  0.24048461  0.35708994     0.36500
H95         H  0.07504079  0.21854652  0.39006291     0.16900
O96         O  0.04498645  0.20266398  0.44694754    -0.60000
H97         H  0.45415605  0.25002829  0.39136763     0.16900
O98         O  0.47889584  0.25187563  0.32834805    -0.60100
H99         H  0.46629604  0.23194459  0.31924013     0.43900
H100        H  0.05165978  0.22354620  0.45981316     0.43900
C101        C  0.02183702  0.28810412  0.22854705    -0.05200
C102        C  0.02976942  0.30169242  0.26280994    -0.32600
C103        C  0.03764842  0.28123280  0.29203872     0.36600
C104        C  0.03602907  0.24587216  0.28871801    -0.05600
C105        C  0.01766615  0.23378782  0.25901518    -0.32500
C106        C  0.01220022  0.25329168  0.22872494     0.36500
H107        H  0.03073018  0.32822932  0.26806975     0.16900
O108        O  0.04891120  0.29600897  0.32309262    -0.60000
H109        H  0.00779089  0.20845286  0.25813394     0.16900
O110        O  0.99580858  0.23792727  0.20049921    -0.60100
H111        H  0.00395026  0.21414691  0.19850718     0.43900
H112        H  0.02800520  0.30584207  0.33464421     0.43900
C113        C  0.13960783  0.27388395  0.17062930    -0.05200
C114        C  0.11282017  0.25102256  0.16989405    -0.32600
C115        C  0.07875389  0.26175257  0.17603424     0.36600
C116        C  0.07038374  0.29618347  0.18490106    -0.05600
C117        C  0.09802786  0.31906443  0.18153977    -0.32500
C118        C  0.13202321  0.30818631  0.17621760     0.36500
H119        H  0.11807142  0.22483870  0.16302670     0.16900
O120        O  0.05381571  0.23868109  0.16914533    -0.60000
H121        H  0.09396413  0.34585999  0.18007890     0.16900
O122        O  0.15741676  0.33182605  0.17337067    -0.60100
H123        H  0.16531299  0.33594562  0.19814512     0.43900
H124        H  0.05160927  0.23782575  0.14279927     0.43900
C125        C  0.40482110  0.29611484  0.07310121    -0.05200
C126        C  0.38372940  0.27389378  0.05319916    -0.32600
C127        C  0.35042104  0.26544685  0.06472597     0.36600
C128        C  0.33637074  0.28040548  0.09584784    -0.05600
C129        C  0.35510583  0.30616611  0.11267262    -0.32500
C130        C  0.38819938  0.31494174  0.10082353     0.36500
H131        H  0.39285295  0.26237858  0.02869155     0.16900
O132        O  0.33217965  0.24205457  0.04559527    -0.60000
H133        H  0.34414080  0.31959420  0.13544358     0.16900
O134        O  0.40532715  0.33976671  0.11900425    -0.60100
H135        H  0.39661491  0.36124985  0.10900767     0.43900
H136        H  0.33957980  0.21987346  0.05503314     0.43900
C137        C  0.02905909  0.12044176  0.27316596    -0.05200
C138        C  0.01295173  0.13057116  0.30493049    -0.32600
C139        C  0.01998024  0.16169132  0.32105616     0.36600
C140        C  0.04373680  0.18433884  0.30503882    -0.05600
C141        C  0.06093421  0.17277711  0.27364668    -0.32500
C142        C  0.05358747  0.14156596  0.25776544     0.36500
H143        H  0.49507362  0.11376802  0.31796666     0.16900
O144        O  0.00316850  0.16884905  0.35238089    -0.60000
H145        H  0.07949788  0.18876697  0.26056008     0.16900
O146        O  0.07129956  0.13158732  0.22773452    -0.60100
H147        H  0.09470112  0.12550555  0.23621716     0.43900
H148        H  0.51558402  0.15558451  0.37073112     0.43900
C149        C  0.02347788  0.41978856  0.21455414    -0.05200
C150        C  0.99963685  0.40397983  0.19257675    -0.32600
C151        C  0.00065279  0.36887614  0.18658582     0.36600
C152        C  0.02796587  0.34797882  0.20044554    -0.05600
C153        C  0.05153714  0.36515780  0.22286324    -0.32500
C154        C  0.04957824  0.39988725  0.22984090     0.36500
H155        H  0.97862873  0.41864683  0.18149901     0.16900
O156        O  0.97304914  0.35590231  0.16898118    -0.60000
H157        H  0.07212504  0.35140731  0.23579824     0.16900
O158        O  0.07422325  0.41428987  0.25105550    -0.60100
H159        H  0.06722885  0.40914268  0.27587927     0.43900
H160        H  0.45451789  0.35423283  0.18724110     0.43900
C161        C  0.34941609  0.03273476  0.30035954    -0.05200
C162        C  0.37154073  0.00882939  0.31701418    -0.32600
C163        C  0.40636727  0.00494398  0.30715126     0.36600
C164        C  0.42025414  0.02455625  0.27976641    -0.05600
C165        C  0.39920892  0.04881608  0.26369326    -0.32500
C166        C  0.36479062  0.05358548  0.27391090     0.36500
H167        H  0.36227835  0.99220522  0.33748262     0.16900
O168        O  0.42628199  0.98120473  0.32389500    -0.60000
H169        H  0.40950713  0.06450329  0.24275362     0.16900
O170        O  0.34547900  0.07719267  0.25593376    -0.60100
H171        H  0.35787226  0.09887556  0.25805024     0.43900
H172        H  0.42311756  0.96008596  0.30992679     0.43900
C173        C  0.29053331  0.46754851  0.40124387    -0.05200
C174        C  0.28483280  0.45640424  0.36553121    -0.32600
C175        C  0.28999757  0.47732954  0.33587843     0.36600
C176        C  0.30114098  0.01088737  0.34069432    -0.05600
C177        C  0.30768271  0.02161456  0.37605229    -0.32500
C178        C  0.30084459  0.00157956  0.40564017     0.36500
H179        H  0.27887500  0.43055117  0.35933033     0.16900
O180        O  0.28629957  0.46358190  0.30241195    -0.60000
H181        H  0.31857670  0.04618721  0.38123088     0.16900
O182        O  0.30811708  0.01460914  0.43887255    -0.60100
H183        H  0.29351216  0.03513517  0.44186763     0.43900
H184        H  0.30966351  0.45547964  0.29541410     0.43900
C185        C  0.24839060  0.16264341  0.16303612    -0.05200
C186        C  0.23208072  0.15221492  0.19440693    -0.32600
C187        C  0.22495927  0.11789311  0.20034052     0.36600
C188        C  0.23446634  0.09259533  0.17470363    -0.05600
C189        C  0.25463239  0.10344181  0.14536984    -0.32500
C190        C  0.26047494  0.13774125  0.13891390     0.36500
H191        H  0.22288765  0.17094030  0.21357646     0.16900
O192        O  0.20808038  0.10958135  0.23114396    -0.60000
H193        H  0.26535421  0.08547464  0.12633995     0.16900
O194        O  0.27742795  0.14668115  0.10828263    -0.60100
H195        H  0.30177793  0.14964363  0.11541597     0.43900
H196        H  0.18507709  0.12064670  0.22995308     0.43900
C197        C  0.24616905  0.04211210  0.21275977    -0.05200
C198        C  0.28173706  0.03528215  0.20980143    -0.32600
C199        C  0.30124798  0.02459300  0.23924811     0.36600
C200        C  0.28788858  0.02816478  0.27462907    -0.05600
C201        C  0.25201872  0.02926587  0.27669695    -0.32500
C202        C  0.23156665  0.03886630  0.24788922     0.36500
H203        H  0.29455924  0.03719852  0.18419935     0.16900
O204        O  0.33249742  0.50917052  0.23221491    -0.60000
H205        H  0.23918677  0.02334077  0.30114558     0.16900
O206        O  0.19742050  0.04553003  0.25532390    -0.60100
H207        H  0.19677988  0.06293674  0.27457765     0.43900
H208        H  0.32767084  0.48466613  0.23228440     0.43900
C209        C  0.11723040  0.03219375  0.20176647    -0.05200
C210        C  0.14217249  0.00694616  0.20408035    -0.32600
C211        C  0.17622712  0.01344137  0.19456417     0.36600
C212        C  0.18655884  0.04693076  0.18594139    -0.05600
C213        C  0.16043623  0.07135247  0.18117705    -0.32500
C214        C  0.12593882  0.06358570  0.18744958     0.36500
H215        H  0.13525142  0.98207786  0.21326685     0.16900
O216        O  0.19977845  0.98736237  0.19562870    -0.60000
H217        H  0.16628921  0.09621385  0.17147384     0.16900
O218        O  0.10095635  0.08712165  0.18020991    -0.60100
H219        H  0.09540965  0.08366763  0.15461922     0.43900
H220        H  0.20081888  0.98017896  0.22088942     0.43900
C221        C  0.26901707  0.44789549  0.46516309    -0.05200
C222        C  0.27057204  0.42417186  0.49302017    -0.32600
C223        C  0.25221859  0.42824522  0.52491591     0.36600
C224        C  0.22910440  0.45593321  0.52972210    -0.05600
C225        C  0.23049301  0.48152658  0.50380610    -0.32500
C226        C  0.24702505  0.47625858  0.47067556     0.36500
H227        H  0.28809910  0.40282853  0.49098364     0.16900
O228        O  0.25863255  0.40550981  0.05147794    -0.60000
H229        H  0.21460501  0.50395393  0.50719615     0.16900
O230        O  0.23949686  0.49820483  0.44384494    -0.60100
H231        H  0.22032166  0.98718111  0.43030968     0.43900
H232        H  0.28311411  0.40845173  0.05818653     0.43900
C233        C  0.23047315  0.03431573  0.14305374    -0.05200
C234        C  0.24938460  0.00379841  0.13959609    -0.32600
C235        C  0.24505693  0.98219428  0.10991297     0.36600
C236        C  0.21732287  0.98759321  0.08601222    -0.05600
C237        C  0.20410484  0.02065384  0.08517599    -0.32500
C238        C  0.21045506  0.04379952  0.11280035     0.36500
H239        H  0.26564391  0.99459669  0.16058311     0.16900
O240        O  0.26553936  0.45395239  0.10710685    -0.60000
H241        H  0.18713665  0.02844420  0.06392479     0.16900
O242        O  0.19509695  0.07512718  0.11106885    -0.60100
H243        H  0.17002634  0.07128831  0.10839329     0.43900
H244        H  0.28699662  0.46153982  0.09533057     0.43900
C245        C  0.21045535  0.36014925  0.10848618    -0.05200
C246        C  0.19606514  0.36385938  0.07449288    -0.32600
C247        C  0.18883476  0.39563841  0.06081588     0.36600
C248        C  0.19744910  0.42504347  0.08055100    -0.05600
C249        C  0.20291964  0.42062458  0.11756686    -0.32500
C250        C  0.21122010  0.38866595  0.13117697     0.36500
H251        H  0.19218033  0.34217061  0.05720753     0.16900
O252        O  0.17786080  0.39735576  0.02630776    -0.60000
H253        H  0.20296916  0.44184065  0.13585224     0.16900
O254        O  0.22025675  0.38580139  0.16634504    -0.60100
H255        H  0.24488433  0.39214529  0.16729682     0.43900
H256        H  0.15276441  0.39298910  0.02746388     0.43900
C257        C  0.36309312  0.22363186  0.40304220    -0.05200
C258        C  0.36825332  0.22414972  0.43981453    -0.32600
C259        C  0.39894975  0.21286068  0.45491865     0.36600
C260        C  0.42802100  0.20335273  0.43327284    -0.05600
C261        C  0.42015470  0.19828280  0.39641861    -0.32500
C262        C  0.38923282  0.20984027  0.38123143     0.36500
H263        H  0.34749247  0.23192814  0.45766128     0.16900
O264        O  0.39754124  0.20751904  0.49068366    -0.60000
H265        H  0.43946480  0.18875480  0.37792142     0.16900
O266        O  0.38496111  0.20723978  0.34502844    -0.60100
H267        H  0.39678467  0.22709563  0.33504260     0.43900
H268        H  0.38746818  0.18476374  0.49331999     0.43900
C269        C  0.27937709  0.13976079  0.34005503    -0.05200
C270        C  0.25634009  0.11373572  0.34557070    -0.32600
C271        C  0.26584344  0.08011926  0.33796162     0.36600
C272        C  0.29922891  0.07203970  0.32316335    -0.05600
C273        C  0.32342689  0.09846171  0.32461732    -0.32500
C274        C  0.31339327  0.13188168  0.33044501     0.36500
H275        H  0.23105009  0.11938242  0.35664489     0.16900
O276        O  0.24463461  0.05543004  0.35073161    -0.60000
H277        H  0.35069773  0.09405041  0.32187272     0.16900
O278        O  0.33776116  0.15658605  0.32894738    -0.60100
H279        H  0.33946578  0.16253254  0.30336057     0.43900
H280        H  0.22084038  0.06134880  0.34329406     0.43900
C281        C  0.27086255  0.33757674  0.39976997    -0.05200
C282        C  0.30362105  0.34492000  0.41286001    -0.32600
C283        C  0.31222884  0.37756642  0.42421228     0.36600
C284        C  0.28814845  0.40477327  0.42083844    -0.05600
C285        C  0.25454081  0.39631069  0.40914125    -0.32500
C286        C  0.24599212  0.36335888  0.39851537     0.36500
H287        H  0.32270847  0.32488239  0.41490366     0.16900
O288        O  0.34376013  0.38160386  0.43981516    -0.60000
H289        H  0.23480544  0.41577962  0.40785176     0.16900
O290        O  0.21345944  0.35678326  0.38641231    -0.60100
H291        H  0.20006389  0.35064752  0.40796350     0.43900
H292        H  0.34059599  0.37490939  0.46502935     0.43900
C293        C  0.09116045  0.22484494  0.32087966    -0.05200
C294        C  0.11047273  0.25037528  0.30351893    -0.32600
C295        C  0.14576547  0.25518972  0.31023593     0.36600
C296        C  0.16323761  0.23383784  0.33373354    -0.05600
C297        C  0.14575575  0.20600993  0.34728804    -0.32500
C298        C  0.11096906  0.20055231  0.33988339     0.36500
H299        H  0.09907836  0.26712443  0.28445599     0.16900
O300        O  0.16261522  0.28126360  0.29421150    -0.60000
H301        H  0.15927697  0.18802482  0.36385562     0.16900
O302        O  0.09617829  0.17195358  0.35316490    -0.60100
H303        H  0.10431761  0.15329043  0.33731504     0.43900
H304        H  0.15940506  0.30084339  0.31062540     0.43900
C305        C  0.44980819  0.33735087  0.05417267    -0.05200
C306        C  0.46786323  0.36017211  0.07630681    -0.32600
C307        C  0.48054972  0.39035340  0.06366749     0.36600
C308        C  0.47346863  0.40026597  0.02872887    -0.05600
C309        C  0.45064235  0.38084655  0.00817344    -0.32500
C310        C  0.43787691  0.35001177  0.02113288     0.36500
H311        H  0.47330898  0.35462535  0.10369414     0.16900
O312        O  0.49990791  0.41013735  0.08599562    -0.60000
H313        H  0.44231746  0.38978206  0.48235139     0.16900
O314        O  0.41501145  0.33180740  0.00098065    -0.60100
H315        H  0.42667338  0.32693024  0.47786133     0.43900
H316        H  0.52399363  0.40215464  0.08249521     0.43900
C317        C  0.33215955  0.44862557  0.44663821    -0.05200
C318        C  0.33875756  0.46173404  0.48143427    -0.32600
C319        C  0.37024092  0.47586354  0.49052898     0.36600
C320        C  0.39651740  0.47815437  0.46489155    -0.05600
C321        C  0.39124857  0.46373764  0.43092332    -0.32500
C322        C  0.36009116  0.44849020  0.42197929     0.36500
H323        H  0.31929240  0.46365950  0.50193677     0.16900
O324        O  0.37451578  0.48812876  0.02454513    -0.60000
H325        H  0.41148082  0.46403950  0.41090154     0.16900
O326        O  0.35618478  0.43586879  0.38798205    -0.60100
H327        H  0.37180909  0.41596619  0.38618198     0.43900
H328        H  0.38166198  0.46834391  0.03881186     0.43900
C329        C  0.16511272  0.46893220  0.04807572    -0.05200
C330        C  0.14033085  0.47890745  0.07421208    -0.32600
C331        C  0.10665649  0.48904113  0.06515868     0.36600
C332        C  0.09606894  0.48830712  0.02926644    -0.05600
C333        C  0.12001338  0.47770057  0.00329031    -0.32500
C334        C  0.15322661  0.46673509  0.01207209     0.36500
H335        H  0.14727085  0.97940969  0.10211083     0.16900
O336        O  0.08402428  0.99859937  0.09170945    -0.60000
H337        H  0.11249110  0.47599327  0.47552529     0.16900
O338        O  0.17266620  0.45233635  0.48510316    -0.60100
H339        H  0.15886998  0.43378670  0.47465965     0.43900
H340        H  0.08895852  0.02270309  0.09660480     0.43900
C341        C  0.47926687  0.16470618  0.45308871    -0.05200
C342        C  0.46889867  0.13876757  0.42915635    -0.32600
C343        C  0.47734250  0.10468837  0.43433926     0.36600
C344        C  0.49625875  0.09501450  0.46428341    -0.05600
C345        C  0.50881418  0.12004200  0.48703061    -0.32500
C346        C  0.50220897  0.15440898  0.48096353     0.36500
H347        H  0.45337889  0.14397677  0.40631430     0.16900
O348        O  0.46445541  0.08078756  0.41143683    -0.60000
H349        H  0.02389067  0.11287400  0.01007030     0.16900
O350        O  0.01728745  0.17733715  0.00368931    -0.60100
H351        H  0.04208765  0.17121031  0.00513200     0.43900
H352        H  0.48126574  0.07934729  0.39143867     0.40300
O353        O  0.48145099  0.45815592  0.53898357    -0.72700
O354        O  0.49023522  0.05246388  0.50731676    -0.73700
O355        O  0.43750622  0.50231287  0.50562920    -0.62300
O356        O  0.03635350  0.50467846  0.53978210    -0.70700
O357        O  0.05152079  0.48632874  0.98593469    -0.70200
O358        O  0.45541179  0.48581577  0.95186142    -0.61500
O359        O  0.50668069  0.03572398  0.95305373    -0.74000
O360        O  0.49594066  0.43862029  0.98515494    -0.72800
Cu361      Cu  0.48605424  0.50542636  0.52471978     1.04600
Cu362      Cu  0.50349490  0.48630923  0.96719211     1.04300
C363        C  0.48464107  0.43373446  0.51686780     0.93500
C364        C  0.49842616  0.05933383  0.97522658     0.92700
C365        C  0.43116537  0.49043056  0.97436621     0.84800
C366        C  0.05962748  0.49400173  0.51796400     0.91100
O367        O  0.30288869  0.22810737  0.91098545    -0.72700
O368        O  0.20643312  0.23291486  0.87780242    -0.73700
O369        O  0.25795648  0.18246312  0.87953781    -0.62300
O370        O  0.25345882  0.28065812  0.90901360    -0.70700
O371        O  0.27237641  0.29457717  0.85516960    -0.70200
O372        O  0.27630881  0.19744442  0.82574902    -0.61500
O373        O  0.22317385  0.24789713  0.82359915    -0.74000
O374        O  0.32295633  0.24127534  0.85747185    -0.72800
Cu375      Cu  0.25425950  0.23085784  0.89606317     1.04600
Cu376      Cu  0.27401755  0.24617320  0.83849686     1.04300
C377        C  0.32819375  0.23191031  0.88963818     0.93500
C378        C  0.19929916  0.23922815  0.84538446     0.92700
C379        C  0.26985999  0.17475960  0.84859847     0.84800
C380        C  0.26415266  0.30284105  0.88714467     0.91100
C381        C  0.20248211  0.45935795  0.56104252    -0.02200
C382        C  0.22519639  0.05430022  0.67930650    -0.02200
C383        C  0.29462681  0.44215792  0.93315078    -0.02200
C384        C  0.30972765  0.03531612  0.80945839    -0.02200
O385        O  0.05710499  0.03121133  0.69474126    -0.72700
O386        O  0.46240826  0.02747864  0.73406213    -0.73700
O387        O  0.01381613  0.07819947  0.72941226    -0.62300
O388        O  0.00869106  0.47803309  0.70137663    -0.70700
O389        O  0.02933477  0.46580797  0.75475285    -0.70200
O390        O  0.03195134  0.06219623  0.78278231    -0.61500
O391        O  0.48087009  0.01214769  0.78742381    -0.74000
O392        O  0.07799733  0.01745341  0.74780920    -0.72800
Cu393      Cu  0.00947916  0.02903865  0.71301094     1.04600
Cu394      Cu  0.03057853  0.01375904  0.76997499     1.04300
C395        C  0.08250112  0.02620447  0.71530895     0.93500
C396        C  0.45623622  0.02062697  0.76664006     0.92700
C397        C  0.02457952  0.08540690  0.76086324     0.84800
C398        C  0.02003425  0.45629769  0.72376918     0.91100
O399        O  0.29528134  0.27637118  0.64345754    -0.72700
O400        O  0.19923746  0.27056041  0.68174364    -0.73700
O401        O  0.25459574  0.22239491  0.67601631    -0.62300
O402        O  0.23684182  0.32070198  0.64930450    -0.70700
O403        O  0.21944286  0.30204949  0.59656508    -0.70200
O404        O  0.23849781  0.20665513  0.62172313    -0.61500
O405        O  0.18104415  0.25247394  0.62881673    -0.74000
O406        O  0.27831510  0.25965198  0.58983883    -0.72800
Cu407      Cu  0.24756389  0.27266913  0.66454909     1.04600
Cu408      Cu  0.22902990  0.25429098  0.60750431     1.04300
C409        C  0.30180365  0.27122350  0.61033833     0.93500
C410        C  0.17482542  0.26372143  0.66039356     0.92700
C411        C  0.24791322  0.19899444  0.65317590     0.84800
C412        C  0.22305682  0.32620973  0.61890834     0.91100
C413        C  0.05065122  0.22151326  0.81772105    -0.02200
C414        C  0.46720665  0.20237363  0.94675320    -0.02200
C415        C  0.03203308  0.30812233  0.69358182    -0.02200
C416        C  0.44441036  0.29987853  0.56553341    -0.02200
C417        C  0.01030410  0.29882436  0.66004241    -0.05200
C418        C  0.47550182  0.28895509  0.66289398    -0.32600
C419        C  0.45516811  0.28280811  0.63284764     0.36600
C420        C  0.46726788  0.29191276  0.59863037    -0.05600
C421        C  0.50287189  0.29770210  0.59524188    -0.32500
C422        C  0.52339942  0.30355089  0.62492232     0.36500
H423        H  0.96322660  0.28730410  0.68881568     0.16900
O424        O  0.42388173  0.26789631  0.63782129    -0.60000
H425        H  0.51388466  0.30301278  0.56936254     0.16900
O426        O  0.05546396  0.31651420  0.61879945    -0.60100
H427        H  0.55206645  0.34138009  0.61901927     0.43900
H428        H  0.42826447  0.24341903  0.63415992     0.43900
C429        C  0.47008646  0.22531530  0.48110478    -0.05200
C430        C  0.48197558  0.25879485  0.47845390    -0.32600
C431        C  0.47763389  0.28243328  0.50615247     0.36600
C432        C  0.45786302  0.27414962  0.53670771    -0.05600
C433        C  0.45269682  0.23956552  0.54252460    -0.32500
C434        C  0.45890220  0.21529199  0.51570898     0.36500
H435        H  0.49456750  0.26773177  0.95469335     0.16900
O436        O  0.49555650  0.31210293  0.50430411    -0.60000
H437        H  0.44127389  0.23146971  0.56740105     0.16900
O438        O  0.44964308  0.18253580  0.52238847    -0.60100
H439        H  0.46212778  0.17572882  0.54424591     0.43900
H440        H  0.49071870  0.32193843  0.48059381     0.43900
C441        C  0.03217883  0.22951923  0.85438590    -0.05200
C442        C  0.04770314  0.22094877  0.88715158    -0.32600
C443        C  0.02797021  0.21339420  0.91738942     0.36600
C444        C  0.99167903  0.21718350  0.91701525    -0.05600
C445        C  0.47932397  0.23817565  0.88956894    -0.32500
C446        C  0.99711205  0.24049571  0.85710973     0.36500
H447        H  0.07504960  0.21858188  0.89009232     0.16900
O448        O  0.04499202  0.20269973  0.94697991    -0.60000
H449        H  0.45417355  0.25002953  0.89138125     0.16900
O450        O  0.47890706  0.25186286  0.82835631    -0.60100
H451        H  0.46634171  0.23191632  0.81923016     0.43900
H452        H  0.05164757  0.22358856  0.95984652     0.43900
C453        C  0.02184370  0.28810496  0.72856065    -0.05200
C454        C  0.02977444  0.30169541  0.76282372    -0.32600
C455        C  0.03766212  0.28123847  0.79205276     0.36600
C456        C  0.03603957  0.24587766  0.78873777    -0.05600
C457        C  0.01767822  0.23379071  0.75903470    -0.32500
C458        C  0.01221456  0.25329098  0.72874087     0.36500
H459        H  0.03072287  0.32823240  0.76808518     0.16900
O460        O  0.04893026  0.29601760  0.82310294    -0.60000
H461        H  0.00780268  0.20845591  0.75815556     0.16900
O462        O  0.99582595  0.23792286  0.70051604    -0.60100
H463        H  0.00397465  0.21414441  0.69852454     0.43900
H464        H  0.02802659  0.30585871  0.83465404     0.43900
C465        C  0.13961094  0.27387780  0.67065191    -0.05200
C466        C  0.11281846  0.25102266  0.66988711    -0.32600
C467        C  0.07875345  0.26175476  0.67602950     0.36600
C468        C  0.07038870  0.29618244  0.68491703    -0.05600
C469        C  0.09803856  0.31905975  0.68158223    -0.32500
C470        C  0.13203328  0.30817760  0.67626965     0.36500
H471        H  0.11806548  0.22484284  0.66299849     0.16900
O472        O  0.05381109  0.23869181  0.66912157    -0.60000
H473        H  0.09398320  0.34585684  0.68013621     0.16900
O474        O  0.15743397  0.33181391  0.67345846    -0.60100
H475        H  0.16533791  0.33589188  0.69824003     0.43900
H476        H  0.05162291  0.23783584  0.64277447     0.43900
C477        C  0.40481492  0.29612657  0.57310471    -0.05200
C478        C  0.38372013  0.27390706  0.55320367    -0.32600
C479        C  0.35040828  0.26547104  0.56472719     0.36600
C480        C  0.33636010  0.28043346  0.59584856    -0.05600
C481        C  0.35510058  0.30618859  0.61267531    -0.32500
C482        C  0.38819602  0.31495701  0.60082675     0.36500
H483        H  0.39284285  0.26238780  0.52869788     0.16900
O484        O  0.33216272  0.24208395  0.54559366    -0.60000
H485        H  0.34413781  0.31961894  0.63544615     0.16900
O486        O  0.40532709  0.33978107  0.61900553    -0.60100
H487        H  0.39660754  0.36126431  0.60901805     0.43900
H488        H  0.33940193  0.21991353  0.55517917     0.43900
C489        C  0.02906110  0.12044570  0.77320918    -0.05200
C490        C  0.01295789  0.13057674  0.80497551    -0.32600
C491        C  0.01998483  0.16170069  0.82109453     0.36600
C492        C  0.04373995  0.18434625  0.80507165    -0.05600
C493        C  0.06093649  0.17278006  0.77368154    -0.32500
C494        C  0.05358767  0.14156854  0.75780447     0.36500
H495        H  0.49499561  0.11381467  0.81787079     0.16900
O496        O  0.00317177  0.16886484  0.85241663    -0.60000
H497        H  0.07949964  0.18876788  0.76059135     0.16900
O498        O  0.07129645  0.13158815  0.72777246    -0.60100
H499        H  0.09470060  0.12551532  0.73625169     0.43900
H500        H  0.51540509  0.15562392  0.87067639     0.43900
C501        C  0.02347067  0.41978986  0.71455893    -0.05200
C502        C  0.99964532  0.40398088  0.69256240    -0.32600
C503        C  0.00066329  0.36887611  0.68657574     0.36600
C504        C  0.02796862  0.34797919  0.70045193    -0.05600
C505        C  0.05152780  0.36515976  0.72288187    -0.32500
C506        C  0.04956059  0.39988777  0.72986394     0.36500
H507        H  0.97864410  0.41864744  0.68147057     0.16900
O508        O  0.97306418  0.35589972  0.66896484    -0.60000
H509        H  0.07211109  0.35141126  0.73582697     0.16900
O510        O  0.07418665  0.41428771  0.75110452    -0.60100
H511        H  0.06716667  0.40914199  0.77592095     0.43900
H512        H  0.45455417  0.35424833  0.68720493     0.43900
C513        C  0.34943803  0.03272255  0.80035609    -0.05200
C514        C  0.37156584  0.00881872  0.81700839    -0.32600
C515        C  0.40639429  0.00494287  0.80714806     0.36600
C516        C  0.42027789  0.02456102  0.77976592    -0.05600
C517        C  0.39922877  0.04881883  0.76369544    -0.32500
C518        C  0.36480992  0.05358077  0.77391273     0.36500
H519        H  0.36230474  0.99219063  0.83747402     0.16900
O520        O  0.42631431  0.98120832  0.82389220    -0.60000
H521        H  0.40952451  0.06451116  0.74275881     0.16900
O522        O  0.34549583  0.07719043  0.75594234    -0.60100
H523        H  0.35788542  0.09887610  0.75806894     0.43900
H524        H  0.42317289  0.96009327  0.80990939     0.43900
C525        C  0.29053700  0.46753051  0.90121468    -0.05200
C526        C  0.28484025  0.45638717  0.86550120    -0.32600
C527        C  0.29000469  0.47731584  0.83585103     0.36600
C528        C  0.30116331  0.01086945  0.84068861    -0.05600
C529        C  0.30770204  0.02159538  0.87604747    -0.32500
C530        C  0.30085109  0.00156397  0.90563412     0.36500
H531        H  0.27888531  0.43053344  0.85929916     0.16900
O532        O  0.28630898  0.46357217  0.80238248    -0.60000
H533        H  0.31860077  0.04616549  0.88122812     0.16900
O534        O  0.30811877  0.01459321  0.93886787    -0.60100
H535        H  0.29351607  0.03512064  0.94185939     0.43900
H536        H  0.30967452  0.45547153  0.79538467     0.43900
C537        C  0.24841787  0.16266261  0.66304502    -0.05200
C538        C  0.23211863  0.15223475  0.69442215    -0.32600
C539        C  0.22499534  0.11791357  0.70035749     0.36600
C540        C  0.23448885  0.09261592  0.67471577    -0.05600
C541        C  0.25465036  0.10346059  0.64537737    -0.32500
C542        C  0.26049623  0.13775948  0.63892064     0.36500
H543        H  0.22293330  0.17096055  0.71359498     0.16900
O544        O  0.20812708  0.10960267  0.73116756    -0.60000
H545        H  0.26536507  0.08549256  0.62634423     0.16900
O546        O  0.27744482  0.14669743  0.60828598    -0.60100
H547        H  0.30178669  0.14970981  0.61542615     0.43900
H548        H  0.18512547  0.12066828  0.72998532     0.43900
C549        C  0.24618701  0.04212674  0.71276602    -0.05200
C550        C  0.28175448  0.03529479  0.70980186    -0.32600
C551        C  0.30126758  0.02459501  0.73924306     0.36600
C552        C  0.28791029  0.02815420  0.77462585    -0.05600
C553        C  0.25204071  0.02925453  0.77669621    -0.32500
C554        C  0.23158809  0.03887238  0.74789579     0.36500
H555        H  0.29457431  0.03721829  0.68419920     0.16900
O556        O  0.33248584  0.50917270  0.73218852    -0.60000
H557        H  0.23920999  0.02331934  0.80114282     0.16900
O558        O  0.19744571  0.04554669  0.75533871    -0.60100
H559        H  0.19681568  0.06295289  0.77459456     0.43900
H560        H  0.32765449  0.48466784  0.73226924     0.43900
C561        C  0.11723919  0.03222764  0.70179066    -0.05200
C562        C  0.14217994  0.00697789  0.70409733    -0.32600
C563        C  0.17623491  0.01347060  0.69457847     0.36600
C564        C  0.18657133  0.04695961  0.68596011    -0.05600
C565        C  0.16045121  0.07138636  0.68120716    -0.32500
C566        C  0.12595194  0.06362195  0.68748045     0.36500
H567        H  0.13525694  0.98210816  0.71327769     0.16900
O568        O  0.19978242  0.98738775  0.69563423    -0.60000
H569        H  0.16630702  0.09624888  0.67150864     0.16900
O570        O  0.10097161  0.08716021  0.68024255    -0.60100
H571        H  0.09545006  0.08373175  0.65464159     0.43900
H572        H  0.20082346  0.98019814  0.72089207     0.43900
C573        C  0.26902715  0.44787748  0.96513244    -0.05200
C574        C  0.27059470  0.42416069  0.99299471    -0.32600
C575        C  0.25225077  0.42823951  0.02489508     0.36600
C576        C  0.22912542  0.45591941  0.02969682    -0.05600
C577        C  0.23049913  0.48150609  0.00377296    -0.32500
C578        C  0.24702484  0.47623379  0.97063964     0.36500
H579        H  0.28812816  0.40282201  0.99095983     0.16900
O580        O  0.25858316  0.40550245  0.55149087    -0.60000
H581        H  0.21460438  0.50392910  0.00716020     0.16900
O582        O  0.23948059  0.49816768  0.94380207    -0.60100
H583        H  0.22032665  0.98716374  0.93029998     0.43900
H584        H  0.28305847  0.40843847  0.55821508     0.43900
C585        C  0.23047927  0.03433944  0.64306318    -0.05200
C586        C  0.24939310  0.00382418  0.63959708    -0.32600
C587        C  0.24506430  0.98222567  0.60990969     0.36600
C588        C  0.21732407  0.98762449  0.58601624    -0.05600
C589        C  0.20410202  0.02068394  0.58518781    -0.32500
C590        C  0.21045629  0.04382667  0.61281434     0.36500
H591        H  0.26565637  0.99461984  0.66057955     0.16900
O592        O  0.26552201  0.45398232  0.60710934    -0.60000
H593        H  0.18712944  0.02847592  0.56394092     0.16900
O594        O  0.19509971  0.07515524  0.61108946    -0.60100
H595        H  0.17002611  0.07131743  0.60842058     0.43900
H596        H  0.28696306  0.46156449  0.59529827     0.43900
C597        C  0.21041857  0.36016678  0.60851144    -0.05200
C598        C  0.19600819  0.36387964  0.57452799    -0.32600
C599        C  0.18878396  0.39566113  0.56085155     0.36600
C600        C  0.19741847  0.42506562  0.58057928    -0.05600
C601        C  0.20290702  0.42064601  0.61759251    -0.32500
C602        C  0.21120446  0.38868503  0.63119952     0.36500
H603        H  0.19210668  0.34219065  0.55724733     0.16900
O604        O  0.17779547  0.39737924  0.52634870    -0.60000
H605        H  0.20297408  0.44186205  0.63587730     0.16900
O606        O  0.22026465  0.38582099  0.66636078    -0.60100
H607        H  0.24491576  0.39208553  0.66727916     0.43900
H608        H  0.15269733  0.39302106  0.52751673     0.43900
C609        C  0.36310203  0.22363099  0.90305002    -0.05200
C610        C  0.36825926  0.22414369  0.93982341    -0.32600
C611        C  0.39895469  0.21285148  0.95492700     0.36600
C612        C  0.42802674  0.20335116  0.93327945    -0.05600
C613        C  0.42016317  0.19828771  0.89642456    -0.32500
C614        C  0.38924237  0.20984419  0.88123798     0.36500
H615        H  0.34749628  0.23191652  0.95767029     0.16900
O616        O  0.39754420  0.20749540  0.99068941    -0.60000
H617        H  0.43947309  0.18875957  0.87792766     0.16900
O618        O  0.38496899  0.20724205  0.84503517    -0.60100
H619        H  0.39688165  0.22704245  0.83503796     0.43900
H620        H  0.38747329  0.18473577  0.99331474     0.43900
C621        C  0.27940248  0.13974122  0.84006556    -0.05200
C622        C  0.25636098  0.11371774  0.84556876    -0.32600
C623        C  0.26586446  0.08010162  0.83795941     0.36600
C624        C  0.29925199  0.07202228  0.82316637    -0.05600
C625        C  0.32345335  0.09844060  0.82463589    -0.32500
C626        C  0.31342201  0.13186018  0.83046960     0.36500
H627        H  0.23106796  0.11936520  0.85663511     0.16900
O628        O  0.24465423  0.05541208  0.85072616    -0.60000
H629        H  0.35072462  0.09402605  0.82189838     0.16900
O630        O  0.33779387  0.15656173  0.82899061    -0.60100
H631        H  0.33951481  0.16251033  0.80340565     0.43900
H632        H  0.22086039  0.06133194  0.84328784     0.43900
C633        C  0.27087051  0.33755891  0.89975437    -0.05200
C634        C  0.30363203  0.34490475  0.91283415    -0.32600
C635        C  0.31224072  0.37755200  0.92418117     0.36600
C636        C  0.28815829  0.40475691  0.92080920    -0.05600
C637        C  0.25454927  0.39629261  0.90911791    -0.32500
C638        C  0.24599866  0.36333898  0.89850196     0.36500
H639        H  0.32272082  0.32486817  0.91487514     0.16900
O640        O  0.34377495  0.38159197  0.93977685    -0.60000
H641        H  0.23481322  0.41576074  0.90782901     0.16900
O642        O  0.21346206  0.35675892  0.88641236    -0.60100
H643        H  0.20006785  0.35065474  0.90797251     0.43900
H644        H  0.34061672  0.37489747  0.96499239     0.43900
C645        C  0.09116751  0.22484619  0.82090233    -0.05200
C646        C  0.11048465  0.25036028  0.80352135    -0.32600
C647        C  0.14578188  0.25516507  0.81022563     0.36600
C648        C  0.16325056  0.23382103  0.83373357    -0.05600
C649        C  0.14576138  0.20600661  0.84730913    -0.32500
C650        C  0.11097148  0.20055694  0.83991574     0.36500
H651        H  0.09909064  0.26710323  0.78445161     0.16900
O652        O  0.16264201  0.28121950  0.79417750    -0.60000
H653        H  0.15927928  0.18802553  0.86388451     0.16900
O654        O  0.09617433  0.17196829  0.85321384    -0.60100
H655        H  0.10430453  0.15329657  0.83737100     0.43900
H656        H  0.15921482  0.30087949  0.81044006     0.43900
C657        C  0.44979659  0.33736271  0.55417016    -0.05200
C658        C  0.46785106  0.36018455  0.57630292    -0.32600
C659        C  0.48053907  0.39036392  0.56366262     0.36600
C660        C  0.47345384  0.40027792  0.52872590    -0.05600
C661        C  0.45062498  0.38085972  0.50817193    -0.32500
C662        C  0.43786202  0.35002362  0.52113127     0.36500
H663        H  0.47329753  0.35463854  0.60368953     0.16900
O664        O  0.49990395  0.41014457  0.58598773    -0.60000
H665        H  0.44233750  0.38976784  0.98235164     0.16900
O666        O  0.41499533  0.33181900  0.50098101    -0.60100
H667        H  0.42669021  0.32691913  0.97786297     0.43900
H668        H  0.52398378  0.40213614  0.58250912     0.43900
C669        C  0.33216833  0.44861272  0.94660423    -0.05200
C670        C  0.33876576  0.46172518  0.98139872    -0.32600
C671        C  0.37025116  0.47584675  0.99049586     0.36600
C672        C  0.39653067  0.47812988  0.96486130    -0.05600
C673        C  0.39126193  0.46371370  0.93089274    -0.32500
C674        C  0.36010082  0.44847373  0.92194597     0.36500
H675        H  0.31929937  0.46366033  0.00189902     0.16900
O676        O  0.37450664  0.48814526  0.52457838    -0.60000
H677        H  0.41149641  0.46401135  0.91087328     0.16900
O678        O  0.35619388  0.43585233  0.88794841    -0.60100
H679        H  0.37182032  0.41595481  0.88614569     0.43900
H680        H  0.38164372  0.46836020  0.53884576     0.43900
C681        C  0.16509302  0.46895403  0.54808537    -0.05200
C682        C  0.14030622  0.47893872  0.57421287    -0.32600
C683        C  0.10663610  0.48906983  0.56514726     0.36600
C684        C  0.09605481  0.48831885  0.52925367    -0.05600
C685        C  0.12000463  0.47770853  0.50328528    -0.32500
C686        C  0.15321717  0.46675063  0.51207788     0.36500
H687        H  0.14726463  0.97945329  0.60210567     0.16900
O688        O  0.08401779  0.99863759  0.59169023    -0.60000
H689        H  0.11249457  0.47599421  0.97553144     0.16900
O690        O  0.17266583  0.45232083  0.98508988    -0.60100
H691        H  0.15886368  0.43377577  0.97464870     0.43900
H692        H  0.08900131  0.02272214  0.59663085     0.43900
C693        C  0.47925905  0.16469306  0.95309412    -0.05200
C694        C  0.46887098  0.13876085  0.92916602    -0.32600
C695        C  0.47732434  0.10467685  0.93432537     0.36600
C696        C  0.49626152  0.09499627  0.96425097    -0.05600
C697        C  0.50882406  0.12001801  0.98700264    -0.32500
C698        C  0.50220956  0.15438715  0.98095729     0.36500
H699        H  0.45332783  0.14397418  0.90634273     0.16900
O700        O  0.46441252  0.08077048  0.91144093    -0.60000
H701        H  0.02390146  0.11285346  0.51001231     0.16900
O702        O  0.01728058  0.17731755  0.50366555    -0.60100
H703        H  0.04208288  0.17119241  0.50510982     0.43900
H704        H  0.48043819  0.08030341  0.89073226     0.40300
O705        O  0.48149482  0.95813457  0.03886403    -0.72700
O706        O  0.49033278  0.55245693  0.00742228    -0.73700
O707        O  0.43747130  0.00223725  0.00552973    -0.62300
O708        O  0.03631370  0.00470135  0.03965919    -0.70700
O709        O  0.05149295  0.98638872  0.48576232    -0.70200
O710        O  0.45533522  0.98576787  0.45182076    -0.61500
O711        O  0.50680877  0.53573764  0.45323013    -0.74000
O712        O  0.49600887  0.93865046  0.48504900    -0.72800
Cu713      Cu  0.48602109  0.00540688  0.02458707     1.04600
Cu714      Cu  0.50345057  0.98633611  0.46708418     1.04300
C715        C  0.48475379  0.93371637  0.01675413     0.93500
C716        C  0.49856097  0.55935424  0.47539904     0.92700
C717        C  0.43109937  0.99037905  0.47434286     0.84800
C718        C  0.05959388  0.99403904  0.01784159     0.91100
O719        O  0.30278753  0.72786441  0.41100588    -0.72700
O720        O  0.20633429  0.73285391  0.37782506    -0.73700
O721        O  0.25777703  0.68231104  0.37951304    -0.62300
O722        O  0.25345760  0.78052695  0.40904758    -0.70700
O723        O  0.27240687  0.79443746  0.35521498    -0.70200
O724        O  0.27611081  0.69732851  0.32572944    -0.61500
O725        O  0.22309151  0.74786272  0.32363592    -0.74000
O726        O  0.32287554  0.74101197  0.35749667    -0.72800
Cu727      Cu  0.25416249  0.73071321  0.39607852     1.04600
Cu728      Cu  0.27393662  0.74603573  0.33852249     1.04300
C729        C  0.32810069  0.73162440  0.38965980     0.93500
C730        C  0.19920834  0.73919118  0.34541099     0.92700
C731        C  0.26965616  0.67462793  0.34855589     0.84800
C732        C  0.26418640  0.80270664  0.38718882     0.91100
C733        C  0.20241177  0.95930929  0.06105624    -0.02200
C734        C  0.22527585  0.55433653  0.17920698    -0.02200
C735        C  0.29455117  0.94206955  0.43321730    -0.02200
C736        C  0.30979062  0.53527498  0.30930391    -0.02200
O737        O  0.05721953  0.53110056  0.19466936    -0.72700
O738        O  0.46247757  0.52736519  0.23393572    -0.73700
O739        O  0.01388279  0.57810931  0.22926064    -0.62300
O740        O  0.00857552  0.97812351  0.20142108    -0.70700
O741        O  0.02921909  0.96586519  0.25478928    -0.70200
O742        O  0.03197762  0.56215434  0.28266072    -0.61500
O743        O  0.48093111  0.51205457  0.28730838    -0.74000
O744        O  0.07809628  0.51741900  0.24776618    -0.72800
Cu745      Cu  0.00958264  0.52892925  0.21291080     1.04600
Cu746      Cu  0.03066375  0.51370291  0.26989814     1.04300
C747        C  0.08260942  0.52613860  0.21525757     0.93500
C748        C  0.45630139  0.52052347  0.26651534     0.92700
C749        C  0.02460204  0.58534751  0.26072035     0.84800
C750        C  0.01992803  0.95637520  0.22379576     0.91100
O751        O  0.29541233  0.77643179  0.14353594    -0.72700
O752        O  0.19929651  0.77068056  0.18173122    -0.73700
O753        O  0.25465461  0.72245945  0.17607179    -0.62300
O754        O  0.23695933  0.82076611  0.14931805    -0.70700
O755        O  0.21965060  0.80209475  0.09655160    -0.70200
O756        O  0.23855856  0.70673283  0.12177457    -0.61500
O757        O  0.18114168  0.75261953  0.12878146    -0.74000
O758        O  0.27847918  0.75965377  0.08992535    -0.72800
Cu759      Cu  0.24765674  0.77274536  0.16458709     1.04600
Cu760      Cu  0.22916619  0.75435775  0.10752976     1.04300
C761        C  0.30195676  0.77124517  0.11042595     0.93500
C762        C  0.17489726  0.76387834  0.16035011     0.92700
C763        C  0.24796533  0.69906390  0.15322523     0.84800
C764        C  0.22320525  0.82625335  0.11890350     0.91100
C765        C  0.05058020  0.72146445  0.31764266    -0.02200
C766        C  0.46718107  0.70230766  0.44675500    -0.02200
C767        C  0.03206157  0.80819940  0.19358370    -0.02200
C768        C  0.44452899  0.79989406  0.06550857    -0.02200
C769        C  0.01035205  0.79885478  0.16003750    -0.05200
C770        C  0.47551889  0.78908630  0.16290737    -0.32600
C771        C  0.45518690  0.78292447  0.13286607     0.36600
C772        C  0.46733988  0.79190525  0.09863079    -0.05600
C773        C  0.50296696  0.79755310  0.09524607    -0.32500
C774        C  0.52349404  0.80342246  0.12492380     0.36500
H775        H  0.96322374  0.78755699  0.18882307     0.16900
O776        O  0.42385459  0.76811315  0.13786672    -0.60000
H777        H  0.51401302  0.80275827  0.06935425     0.16900
O778        O  0.05559296  0.81626120  0.11873379    -0.60100
H779        H  0.55225425  0.84114579  0.11875060     0.43900
H780        H  0.42812844  0.74363317  0.13407496     0.43900
C781        C  0.47004466  0.72528194  0.98107839    -0.05200
C782        C  0.48195414  0.75875463  0.97839495    -0.32600
C783        C  0.47768501  0.78240334  0.00609694     0.36600
C784        C  0.45795532  0.77414598  0.03668844    -0.05600
C785        C  0.45277388  0.73957192  0.04252936    -0.32500
C786        C  0.45888546  0.71528983  0.01570608     0.36500
H787        H  0.49447372  0.76770892  0.45459151     0.16900
O788        O  0.49565322  0.81204536  0.00422141    -0.60000
H789        H  0.44139754  0.73149305  0.06743545     0.16900
O790        O  0.44966243  0.68253384  0.02244683    -0.60100
H791        H  0.46212927  0.67577589  0.04433603     0.43900
H792        H  0.49078953  0.82189213  0.98052472     0.43900
C793        C  0.03210293  0.72942657  0.35431557    -0.05200
C794        C  0.04765436  0.72091384  0.38708852    -0.32600
C795        C  0.02793804  0.71335808  0.41734270     0.36600
C796        C  0.99164193  0.71711346  0.41698022    -0.05600
C797        C  0.47923386  0.73803540  0.38950345    -0.32500
C798        C  0.99701133  0.74032298  0.35703128     0.36500
H799        H  0.07500474  0.71856296  0.39001391     0.16900
O800        O  0.04497120  0.70265821  0.44692737    -0.60000
H801        H  0.45406346  0.74985026  0.39129480     0.16900
O802        O  0.47878996  0.75159459  0.32825648    -0.60100
H803        H  0.46624242  0.73160872  0.31918918     0.43900
H804        H  0.05162323  0.72354534  0.45979913     0.43900
C805        C  0.02186184  0.78818611  0.22857097    -0.05200
C806        C  0.02987109  0.80173634  0.26283378    -0.32600
C807        C  0.03765309  0.78124225  0.29206641     0.36600
C808        C  0.03596622  0.74588919  0.28871526    -0.05600
C809        C  0.01753960  0.73386985  0.25903029    -0.32500
C810        C  0.01210403  0.75340219  0.22875350     0.36500
H811        H  0.03096506  0.82826475  0.26809490     0.16900
O812        O  0.04893361  0.79597141  0.32313619    -0.60000
H813        H  0.00760148  0.70855789  0.25815276     0.16900
O814        O  0.99569332  0.73807201  0.20051868    -0.60100
H815        H  0.00380185  0.71428406  0.19851122     0.43900
H816        H  0.02801260  0.80570066  0.33476369     0.43900
C817        C  0.13967082  0.77404522  0.17058315    -0.05200
C818        C  0.11291619  0.75114495  0.16999613    -0.32600
C819        C  0.07884796  0.76183927  0.17619750     0.36600
C820        C  0.07043545  0.79628622  0.18495211    -0.05600
C821        C  0.09804222  0.81919725  0.18147501    -0.32500
C822        C  0.13204586  0.80835141  0.17609311     0.36500
H823        H  0.11819443  0.72494467  0.16322486     0.16900
O824        O  0.05393768  0.73868804  0.16951521    -0.60000
H825        H  0.09393159  0.84598510  0.17996548     0.16900
O826        O  0.15740380  0.83201378  0.17313159    -0.60100
H827        H  0.16507359  0.83648263  0.19791896     0.43900
H828        H  0.05162638  0.73773094  0.14318361     0.43900
C829        C  0.40492182  0.79618383  0.07305744    -0.05200
C830        C  0.38385362  0.77385450  0.05326570    -0.32600
C831        C  0.35058999  0.76535787  0.06488344     0.36600
C832        C  0.33651369  0.78044362  0.09592180    -0.05600
C833        C  0.35519719  0.80632926  0.11259944    -0.32500
C834        C  0.38827886  0.81510580  0.10069627     0.36500
H835        H  0.39296382  0.76225284  0.02879574     0.16900
O836        O  0.33241348  0.74178466  0.04593328    -0.60000
H837        H  0.34420451  0.81984584  0.13529852     0.16900
O838        O  0.40537546  0.84003649  0.11874580    -0.60100
H839        H  0.39671439  0.86145875  0.10855265     0.43900
H840        H  0.34065597  0.71964874  0.05475951     0.43900
C841        C  0.02902391  0.62040109  0.27305990    -0.05200
C842        C  0.01304036  0.63045751  0.30491789    -0.32600
C843        C  0.02005573  0.66158073  0.32104270     0.36600
C844        C  0.04366547  0.68431313  0.30493083    -0.05600
C845        C  0.06075503  0.67282499  0.27344697    -0.32500
C846        C  0.05340523  0.64161702  0.25755110     0.36500
H847        H  0.49515859  0.61363183  0.31788827     0.16900
O848        O  0.00342326  0.66863266  0.35249430    -0.60000
H849        H  0.07923077  0.68887215  0.26030617     0.16900
O850        O  0.07099317  0.63172167  0.22741194    -0.60100
H851        H  0.09445994  0.62572750  0.23575829     0.43900
H852        H  0.51581510  0.65543919  0.37066013     0.43900
C853        C  0.02340236  0.91987628  0.21455266    -0.05200
C854        C  0.99958208  0.90405024  0.19256901    -0.32600
C855        C  0.00064424  0.86894941  0.18654804     0.36600
C856        C  0.02796116  0.84806238  0.20043130    -0.05600
C857        C  0.05153186  0.86527049  0.22282569    -0.32500
C858        C  0.04954718  0.90000229  0.22979703     0.36500
H859        H  0.97856368  0.91870236  0.18148988     0.16900
O860        O  0.97309586  0.85597858  0.16885072    -0.60000
H861        H  0.07215586  0.85154746  0.23573098     0.16900
O862        O  0.07422099  0.91444038  0.25094827    -0.60100
H863        H  0.06730953  0.90926105  0.27578963     0.43900
H864        H  0.45448623  0.85435111  0.18707508     0.43900
C865        C  0.34951417  0.53270471  0.30023953    -0.05200
C866        C  0.37160884  0.50873261  0.31683661    -0.32600
C867        C  0.40642970  0.50481917  0.30696774     0.36600
C868        C  0.42034684  0.52447772  0.27963948    -0.05600
C869        C  0.39933654  0.54879796  0.26362114    -0.32500
C870        C  0.36491888  0.55358586  0.27383621     0.36500
H871        H  0.36231988  0.49205855  0.33724544     0.16900
O872        O  0.42630148  0.48099685  0.32363582    -0.60000
H873        H  0.40965948  0.56451012  0.24271561     0.16900
O874        O  0.34562967  0.57721603  0.25586769    -0.60100
H875        H  0.35805355  0.59888875  0.25797674     0.43900
H876        H  0.42324830  0.45996657  0.30948383     0.43900
C877        C  0.29047514  0.96746117  0.40129484    -0.05200
C878        C  0.28486938  0.95633918  0.36556115    -0.32600
C879        C  0.29002162  0.97731863  0.33594501     0.36600
C880        C  0.30124194  0.51086217  0.34056558    -0.05600
C881        C  0.30786687  0.52161495  0.37589907    -0.32500
C882        C  0.30100252  0.50164187  0.40552774     0.36500
H883        H  0.27900646  0.93047012  0.35932466     0.16900
O884        O  0.28643560  0.96360113  0.30245167    -0.60000
H885        H  0.31883716  0.54616531  0.38101959     0.16900
O886        O  0.30836795  0.51468686  0.43873133    -0.60100
H887        H  0.29383363  0.53525943  0.44172233     0.43900
H888        H  0.30978135  0.95531696  0.29562386     0.43900
C889        C  0.24847406  0.66272278  0.16305787    -0.05200
C890        C  0.23221847  0.65225582  0.19444346    -0.32600
C891        C  0.22509178  0.61792681  0.20033165     0.36600
C892        C  0.23454123  0.59266096  0.17463682    -0.05600
C893        C  0.25464818  0.60354308  0.14527637    -0.32500
C894        C  0.26049743  0.63784843  0.13886875     0.36500
H895        H  0.22306856  0.67095698  0.21366085     0.16900
O896        O  0.20827092  0.60957650  0.23115546    -0.60000
H897        H  0.26532634  0.58560157  0.12619405     0.16900
O898        O  0.27739072  0.64682311  0.10821336    -0.60100
H899        H  0.30172553  0.64992659  0.11533125     0.43900
H900        H  0.18524528  0.62059400  0.22999182     0.43900
C901        C  0.24629213  0.54215776  0.21263982    -0.05200
C902        C  0.28186912  0.53538790  0.20965451    -0.32600
C903        C  0.30139816  0.52464584  0.23906781     0.36600
C904        C  0.28802055  0.52807326  0.27445347    -0.05600
C905        C  0.25215277  0.52909823  0.27651559    -0.32500
C906        C  0.23170076  0.53881073  0.24775938     0.36500
H907        H  0.29467959  0.53737887  0.18405297     0.16900
O908        O  0.33232781  0.00906169  0.23243484    -0.60000
H909        H  0.23932631  0.52307032  0.30093851     0.16900
O910        O  0.19756964  0.54549931  0.25524206    -0.60100
H911        H  0.19697052  0.56287957  0.27452704     0.43900
H912        H  0.32761834  0.98456315  0.23332330     0.43900
C913        C  0.11734684  0.53218635  0.20174896    -0.05200
C914        C  0.14230742  0.50695513  0.20405159    -0.32600
C915        C  0.17635042  0.51346724  0.19449761     0.36600
C916        C  0.18665960  0.54696643  0.18587977    -0.05600
C917        C  0.16052150  0.57137729  0.18114726    -0.32500
C918        C  0.12603008  0.56358212  0.18742211     0.36500
H919        H  0.13540626  0.48208165  0.21323832     0.16900
O920        O  0.19991681  0.48739806  0.19552982    -0.60000
H921        H  0.16635885  0.59624724  0.17145626     0.16900
O922        O  0.10102647  0.58708843  0.18015689    -0.60100
H923        H  0.09539379  0.58352084  0.15460415     0.43900
H924        H  0.20094607  0.48016917  0.22077387     0.43900
C925        C  0.26893502  0.94778172  0.46518780    -0.05200
C926        C  0.27053848  0.92411072  0.49309037    -0.32600
C927        C  0.25218765  0.92821665  0.52498923     0.36600
C928        C  0.22904800  0.95589364  0.52975678    -0.05600
C929        C  0.23039990  0.98144158  0.50379200    -0.32500
C930        C  0.24689101  0.97611441  0.47065061     0.36500
H931        H  0.28809027  0.90278585  0.49108084     0.16900
O932        O  0.25858860  0.90550565  0.05159766    -0.60000
H933        H  0.21449042  0.00385887  0.50714674     0.16900
O934        O  0.23925791  0.99795911  0.44375745    -0.60100
H935        H  0.22055790  0.48751227  0.43031979     0.43900
H936        H  0.28308299  0.90841424  0.05825748     0.43900
C937        C  0.23056289  0.53438621  0.14296164    -0.05200
C938        C  0.24951056  0.50388991  0.13948649    -0.32600
C939        C  0.24517233  0.48227342  0.10981671     0.36600
C940        C  0.21740638  0.48763998  0.08595460    -0.05600
C941        C  0.20415297  0.52068987  0.08512097    -0.32500
C942        C  0.21050693  0.54384819  0.11272983     0.36500
H943        H  0.26580741  0.49470979  0.16045237     0.16900
O944        O  0.26540150  0.95385678  0.10722450    -0.60000
H945        H  0.18715522  0.52846098  0.06388696     0.16900
O946        O  0.19511422  0.57516114  0.11101056    -0.60100
H947        H  0.17004468  0.57129752  0.10835690     0.43900
H948        H  0.28686038  0.96141923  0.09543338     0.43900
C949        C  0.21049401  0.86017338  0.10850403    -0.05200
C950        C  0.19608047  0.86384332  0.07451647    -0.32600
C951        C  0.18877867  0.89560326  0.06083893     0.36600
C952        C  0.19732748  0.92502178  0.08058063    -0.05600
C953        C  0.20276108  0.92061621  0.11760324    -0.32500
C954        C  0.21116928  0.88868410  0.13120480     0.36500
H955        H  0.19225181  0.84214610  0.05722803     0.16900
O956        O  0.17784153  0.89729432  0.02631769    -0.60000
H957        H  0.20274350  0.94183389  0.13588902     0.16900
O958        O  0.22024311  0.88584408  0.16636490    -0.60100
H959        H  0.24486689  0.89220172  0.16728464     0.43900
H960        H  0.15276837  0.89280910  0.02743138     0.43900
C961        C  0.36300387  0.72330176  0.40307829    -0.05200
C962        C  0.36815628  0.72377040  0.43985365    -0.32600
C963        C  0.39888969  0.71255566  0.45494522     0.36600
C964        C  0.42799020  0.70315692  0.43328799    -0.05600
C965        C  0.42012242  0.69807630  0.39643430    -0.32500
C966        C  0.38917203  0.70957732  0.38125783     0.36500
H967        H  0.34737852  0.73148211  0.45771011     0.16900
O968        O  0.39750633  0.70719495  0.49070736    -0.60000
H969        H  0.43944264  0.68860478  0.37791969     0.16900
O970        O  0.38490911  0.70700011  0.34505254    -0.60100
H971        H  0.39658854  0.72695283  0.33509858     0.43900
H972        H  0.38751299  0.68440137  0.49333189     0.43900
C973        C  0.27923249  0.63962748  0.33997671    -0.05200
C974        C  0.25624623  0.61355566  0.34546173    -0.32600
C975        C  0.26580903  0.57996646  0.33778632     0.36600
C976        C  0.29921886  0.57196165  0.32298856    -0.05600
C977        C  0.32335509  0.59842908  0.32445387    -0.32500
C978        C  0.31325076  0.63182329  0.33030759     0.36500
H979        H  0.23094899  0.61914282  0.35655052     0.16900
O980        O  0.24462713  0.55522493  0.35048796    -0.60000
H981        H  0.35063347  0.59407401  0.32171093     0.16900
O982        O  0.33755729  0.65658286  0.32877755    -0.60100
H983        H  0.33938605  0.66237389  0.30315391     0.43900
H984        H  0.22083281  0.56110862  0.34300577     0.43900
C985        C  0.27089284  0.83743738  0.39979308    -0.05200
C986        C  0.30361753  0.84479452  0.41296804    -0.32600
C987        C  0.31218940  0.87745090  0.42433443     0.36600
C988        C  0.28811703  0.90465806  0.42087296    -0.05600
C989        C  0.25454804  0.89618447  0.40907772    -0.32500
C990        C  0.24603194  0.86322243  0.39844357     0.36500
H991        H  0.32269910  0.82475935  0.41508229     0.16900
O992        O  0.34366852  0.88149789  0.44004884    -0.60000
H993        H  0.23481528  0.91565020  0.40772068     0.16900
O994        O  0.21353576  0.85663118  0.38624576    -0.60100
H995        H  0.19992378  0.85110179  0.40784168     0.43900
H996        H  0.34044556  0.87472869  0.46523655     0.43900
C997        C  0.09109802  0.72478540  0.32082263    -0.05200
C998        C  0.11042194  0.75032046  0.30348180    -0.32600
C999        C  0.14570518  0.75514498  0.31023704     0.36600
C1000       C  0.16316291  0.73378898  0.33374245    -0.05600
C1001       C  0.14567531  0.70594978  0.34726715    -0.32500
C1002       C  0.11089459  0.70048811  0.33982925     0.36500
H1003       H  0.09904421  0.76706516  0.28440428     0.16900
O1004       O  0.16255682  0.78123107  0.29423790    -0.60000
H1005       H  0.15918705  0.68795914  0.36383625     0.16900
O1006       O  0.09609421  0.67188745  0.35309071    -0.60100
H1007       H  0.10420453  0.65323463  0.33720469     0.43900
H1008       H  0.15968305  0.80070015  0.31086820     0.43900
C1009       C  0.44999164  0.83735995  0.05412793    -0.05200
C1010       C  0.46818028  0.86014340  0.07619278    -0.32600
C1011       C  0.48087718  0.89030100  0.06350461     0.36600
C1012       C  0.47365108  0.90024426  0.02861208    -0.05600
C1013       C  0.45074421  0.88085575  0.00812918    -0.32500
C1014       C  0.43799746  0.85002960  0.02111626     0.36500
H1015       H  0.47370504  0.85460018  0.10356386     0.16900
O1016       O  0.50037475  0.91004123  0.08574395    -0.60000
H1017       H  0.44232488  0.88984140  0.48236680     0.16900
O1018       O  0.41507557  0.83184298  0.00101737    -0.60100
H1019       H  0.42666133  0.82696878  0.47790022     0.43900
H1020       H  0.52446564  0.90222391  0.08187884     0.43900
C1021       C  0.33208200  0.94854775  0.44667286    -0.05200
C1022       C  0.33865573  0.96178339  0.48142008    -0.32600
C1023       C  0.37013696  0.97594405  0.49047875     0.36600
C1024       C  0.39645551  0.97807537  0.46486689    -0.05600
C1025       C  0.39120067  0.96354152  0.43095142    -0.32500
C1026       C  0.36002485  0.94832100  0.42202914     0.36500
H1027       H  0.31915958  0.96381648  0.50188445     0.16900
O1028       O  0.37436871  0.98843078  0.02441888    -0.60000
H1029       H  0.41145286  0.96374377  0.41094793     0.16900
O1030       O  0.35611979  0.93562145  0.38806320    -0.60100
H1031       H  0.37172280  0.91570238  0.38632220     0.43900
H1032       H  0.38115484  0.96868389  0.03892018     0.43900
C1033       C  0.16502666  0.96891853  0.04807267    -0.05200
C1034       C  0.14023198  0.97896839  0.07416820    -0.32600
C1035       C  0.10657428  0.98910435  0.06506253     0.36600
C1036       C  0.09601054  0.98831942  0.02916087    -0.05600
C1037       C  0.11995974  0.97763182  0.00322944    -0.32500
C1038       C  0.15315518  0.96664869  0.01206439     0.36500
H1039       H  0.14739321  0.47929633  0.10214874     0.16900
O1040       O  0.08409984  0.49845021  0.09183696    -0.60000
H1041       H  0.11246309  0.97587418  0.47546161     0.16900
O1042       O  0.17260669  0.95217388  0.48513210    -0.60100
H1043       H  0.15877444  0.93366339  0.47467831     0.43900
H1044       H  0.08992283  0.52214596  0.09780549     0.43900
C1045       C  0.47933536  0.66467027  0.45314823    -0.05200
C1046       C  0.46920862  0.63872855  0.42910999    -0.32600
C1047       C  0.47771802  0.60467004  0.43431706     0.36600
C1048       C  0.49641798  0.59501844  0.46441670    -0.05600
C1049       C  0.50878942  0.62006792  0.48725320    -0.32500
C1050       C  0.50218403  0.65442295  0.48112346     0.36500
H1051       H  0.45385040  0.64393007  0.40614865     0.16900
O1052       O  0.46511408  0.58076375  0.41124852    -0.60000
H1053       H  0.02375412  0.61295418  0.01036848     0.16900
O1054       O  0.01723324  0.67741088  0.00379780    -0.60100
H1055       H  0.04204513  0.67132864  0.00522800     0.43900
H1056       H  0.48233805  0.57908812  0.39164824     0.40300
O1057       O  0.48150300  0.95814916  0.53888171    -0.72700
O1058       O  0.49033568  0.55246851  0.50744586    -0.73700
O1059       O  0.43746431  0.00225093  0.50556901    -0.62300
O1060       O  0.03631044  0.00470704  0.53963344    -0.70700
O1061       O  0.05148953  0.98639498  0.98578166    -0.70200
O1062       O  0.45534848  0.98573527  0.95178975    -0.61500
O1063       O  0.50681896  0.53572114  0.95321267    -0.74000
O1064       O  0.49602147  0.93862935  0.98504020    -0.72800
Cu1065     Cu  0.48602333  0.00542096  0.52461122     1.04600
Cu1066     Cu  0.50345987  0.98631520  0.96706608     1.04300
C1067       C  0.48475162  0.93373485  0.51676603     0.93500
C1068       C  0.49856880  0.55934048  0.97537772     0.92700
C1069       C  0.43111010  0.99035670  0.97430679     0.84800
C1070       C  0.05959364  0.99404215  0.51782136     0.91100
O1071       O  0.30281060  0.72787228  0.91103439    -0.72700
O1072       O  0.20635728  0.73282610  0.87784927    -0.73700
O1073       O  0.25781863  0.68229784  0.87954839    -0.62300
O1074       O  0.25346829  0.78051814  0.90905687    -0.70700
O1075       O  0.27241257  0.79442158  0.85521983    -0.70200
O1076       O  0.27614906  0.69731138  0.82576208    -0.61500
O1077       O  0.22311113  0.74782976  0.82365742    -0.74000
O1078       O  0.32289428  0.74101540  0.85752241    -0.72800
Cu1079     Cu  0.25418695  0.73070266  0.89610301     1.04600
Cu1080     Cu  0.27395693  0.74601933  0.83854334     1.04300
C1081       C  0.32812207  0.73163395  0.88968722     0.93500
C1082       C  0.19922909  0.73916039  0.84543514     0.92700
C1083       C  0.26970090  0.67461323  0.84859272     0.84800
C1084       C  0.26419179  0.80269466  0.88719186     0.91100
C1085       C  0.20240984  0.95933843  0.56106447    -0.02200
C1086       C  0.22526528  0.55436707  0.67921162    -0.02200
C1087       C  0.29455532  0.94205562  0.93320800    -0.02200
C1088       C  0.30979776  0.53526470  0.80928688    -0.02200
O1089       O  0.05720663  0.53110746  0.69466580    -0.72700
O1090       O  0.46249709  0.52735037  0.73393519    -0.73700
O1091       O  0.01387443  0.57811045  0.72927237    -0.62300
O1092       O  0.00858036  0.97814488  0.70141593    -0.70700
O1093       O  0.02921725  0.96587497  0.75478361    -0.70200
O1094       O  0.03199590  0.56215543  0.78266301    -0.61500
O1095       O  0.48093942  0.51205096  0.78731562    -0.74000
O1096       O  0.07809378  0.51741170  0.74775409    -0.72800
Cu1097     Cu  0.00957289  0.52893186  0.71292040     1.04600
Cu1098     Cu  0.03066797  0.51370480  0.76990198     1.04300
C1099       C  0.08260077  0.52613943  0.71524722     0.93500
C1100       C  0.45631336  0.52051073  0.76651369     0.92700
C1101       C  0.02460807  0.58534821  0.76072672     0.84800
C1102       C  0.01992842  0.95639104  0.72378728     0.91100
O1103       O  0.29540368  0.77646465  0.64354312    -0.72700
O1104       O  0.19928923  0.77070842  0.68174351    -0.73700
O1105       O  0.25464593  0.72248972  0.67607839    -0.62300
O1106       O  0.23695235  0.82079877  0.64933743    -0.70700
O1107       O  0.21963859  0.80213097  0.59657138    -0.70200
O1108       O  0.23854918  0.70676599  0.62178033    -0.61500
O1109       O  0.18113441  0.75264809  0.62879319    -0.74000
O1110       O  0.27846501  0.75969065  0.58993283    -0.72800
Cu1111     Cu  0.24764918  0.77277615  0.66459869     1.04600
Cu1112     Cu  0.22915555  0.75439203  0.60754093     1.04300
C1113       C  0.30194429  0.77128073  0.61043168     0.93500
C1114       C  0.17489038  0.76390381  0.66036257     0.92700
C1115       C  0.24795442  0.69909555  0.65323117     0.84800
C1116       C  0.22319581  0.82628818  0.61892473     0.91100
C1117       C  0.05059393  0.72146157  0.81765080    -0.02200
C1118       C  0.46720300  0.70229445  0.94675003    -0.02200
C1119       C  0.03205455  0.80820909  0.69359502    -0.02200
C1120       C  0.44451311  0.79991898  0.56550563    -0.02200
C1121       C  0.01034504  0.79886110  0.66005047    -0.05200
C1122       C  0.47550665  0.78912539  0.66290194    -0.32600
C1123       C  0.45516952  0.78296210  0.63286592     0.36600
C1124       C  0.46732449  0.79192385  0.59862621    -0.05600
C1125       C  0.50295533  0.79755313  0.59523615    -0.32500
C1126       C  0.52349011  0.80341649  0.62491081     0.36500
H1127       H  0.96321723  0.78756314  0.68883660     0.16900
O1128       O  0.42382907  0.76817014  0.63787766    -0.60000
H1129       H  0.51400094  0.80274786  0.56934124     0.16900
O1130       O  0.05558514  0.81626551  0.61874391    -0.60100
H1131       H  0.55226806  0.84112105  0.61870733     0.43900
H1132       H  0.42808525  0.74369012  0.63408307     0.43900
C1133       C  0.47002551  0.72530050  0.48107802    -0.05200
C1134       C  0.48192583  0.75877521  0.47838521    -0.32600
C1135       C  0.47765445  0.78242886  0.50608288     0.36600
C1136       C  0.45793445  0.77417172  0.53668171    -0.05600
C1137       C  0.45275778  0.73959772  0.54252765    -0.32500
C1138       C  0.45886858  0.71531253  0.51570755     0.36500
H1139       H  0.49450885  0.76769140  0.95460663     0.16900
O1140       O  0.49561261  0.81207565  0.50419580    -0.60000
H1141       H  0.44138292  0.73152130  0.56743542     0.16900
O1142       O  0.44963036  0.68256066  0.52244703    -0.60100
H1143       H  0.46209443  0.67579665  0.54433669     0.43900
H1144       H  0.49073479  0.82191874  0.48049845     0.43900
C1145       C  0.03210662  0.72942629  0.85431804    -0.05200
C1146       C  0.04764573  0.72090320  0.88709316    -0.32600
C1147       C  0.02791993  0.71335315  0.91734186     0.36600
C1148       C  0.99162363  0.71710961  0.91696874    -0.05600
C1149       C  0.47923156  0.73804353  0.88951145    -0.32500
C1150       C  0.99701703  0.74033334  0.85702606     0.36500
H1151       H  0.07499485  0.71854625  0.89002576     0.16900
O1152       O  0.04494647  0.70266593  0.94693529    -0.60000
H1153       H  0.45406113  0.74985662  0.89131649     0.16900
O1154       O  0.47875425  0.75158981  0.82826165    -0.60100
H1155       H  0.46617756  0.73161104  0.81923025     0.43900
H1156       H  0.05156941  0.72355699  0.95981335     0.43900
C1157       C  0.02186460  0.78819289  0.72858348    -0.05200
C1158       C  0.02989562  0.80173739  0.76284250    -0.32600
C1159       C  0.03768497  0.78124000  0.79207037     0.36600
C1160       C  0.03598973  0.74588732  0.78871949    -0.05600
C1161       C  0.01755835  0.73387063  0.75903634    -0.32500
C1162       C  0.01210704  0.75340844  0.72876609     0.36500
H1163       H  0.03100027  0.82826492  0.76810411     0.16900
O1164       O  0.04898031  0.79596586  0.82313612    -0.60000
H1165       H  0.00762412  0.70855722  0.75815599     0.16900
O1166       O  0.99568543  0.73808174  0.70053634    -0.60100
H1167       H  0.00379641  0.71429334  0.69851943     0.43900
H1168       H  0.02806647  0.80569869  0.83477237     0.43900
C1169       C  0.13966404  0.77406660  0.67059478    -0.05200
C1170       C  0.11291342  0.75116176  0.67001415    -0.32600
C1171       C  0.07884405  0.76185263  0.67621238     0.36600
C1172       C  0.07042812  0.79630017  0.68496051    -0.05600
C1173       C  0.09803006  0.81921483  0.68147255    -0.32500
C1174       C  0.13203415  0.80837313  0.67609154     0.36500
H1175       H  0.11819545  0.72496078  0.66324920     0.16900
O1176       O  0.05393640  0.73869767  0.66953388    -0.60000
H1177       H  0.09391422  0.84600138  0.67995202     0.16900
O1178       O  0.15738719  0.83203903  0.67311721    -0.60100
H1179       H  0.16508332  0.83649217  0.69789717     0.43900
H1180       H  0.05162434  0.73773694  0.64319954     0.43900
C1181       C  0.40490548  0.79621518  0.57305464    -0.05200
C1182       C  0.38383644  0.77388529  0.55326622    -0.32600
C1183       C  0.35057322  0.76539006  0.56488612     0.36600
C1184       C  0.33649855  0.78048015  0.59592294    -0.05600
C1185       C  0.35518042  0.80637116  0.61259305    -0.32500
C1186       C  0.38826187  0.81514539  0.60068705     0.36500
H1187       H  0.39294586  0.76228293  0.52879716     0.16900
O1188       O  0.33239418  0.74181645  0.54593922    -0.60000
H1189       H  0.34418716  0.81989273  0.63528862     0.16900
O1190       O  0.40535756  0.84008204  0.61872817    -0.60100
H1191       H  0.39670205  0.86150011  0.60852151     0.43900
H1192       H  0.34070229  0.71967645  0.55469946     0.43900
C1193       C  0.02903085  0.62040130  0.77306449    -0.05200
C1194       C  0.01302652  0.63046704  0.80490743    -0.32600
C1195       C  0.02004372  0.66158872  0.82103494     0.36600
C1196       C  0.04367474  0.68431109  0.80493872    -0.05600
C1197       C  0.06077881  0.67281535  0.77346679    -0.32500
C1198       C  0.05343293  0.64160580  0.75757325     0.36500
H1199       H  0.49526189  0.61359354  0.81797910     0.16900
O1200       O  0.00338900  0.66865054  0.85247119    -0.60000
H1201       H  0.07926852  0.68885481  0.76033650     0.16900
O1202       O  0.07104560  0.63169681  0.72745507    -0.60100
H1203       H  0.09449542  0.62566803  0.73583268     0.43900
H1204       H  0.51601086  0.65540443  0.87070169     0.43900
C1205       C  0.02340057  0.91989174  0.71454116    -0.05200
C1206       C  0.99957181  0.90406104  0.69257031    -0.32600
C1207       C  0.00063124  0.86895785  0.68655799     0.36600
C1208       C  0.02795053  0.84807270  0.70044068    -0.05600
C1209       C  0.05152670  0.86528547  0.72282437    -0.32500
C1210       C  0.04954872  0.90001966  0.72978189     0.36500
H1211       H  0.97855002  0.91871137  0.68149520     0.16900
O1212       O  0.97307962  0.85598321  0.66886924    -0.60000
H1213       H  0.07215531  0.85156619  0.73572605     0.16900
O1214       O  0.07423307  0.91446240  0.75091650    -0.60100
H1215       H  0.06733847  0.90928338  0.77576040     0.43900
H1216       H  0.45449216  0.85439598  0.68705178     0.43900
C1217       C  0.34951972  0.53268664  0.80021851    -0.05200
C1218       C  0.37161121  0.50871180  0.81681504    -0.32600
C1219       C  0.40643343  0.50479829  0.80695039     0.36600
C1220       C  0.42035443  0.52445897  0.77962659    -0.05600
C1221       C  0.39934586  0.54877937  0.76360549    -0.32500
C1222       C  0.36492765  0.55356888  0.77381861     0.36500
H1223       H  0.36232021  0.49203766  0.83722276     0.16900
O1224       O  0.42630515  0.48097692  0.82361971    -0.60000
H1225       H  0.40967204  0.56449346  0.74270328     0.16900
O1226       O  0.34564261  0.57720637  0.75585631    -0.60100
H1227       H  0.35806691  0.59887770  0.75797741     0.43900
H1228       H  0.42310086  0.45989899  0.80958453     0.43900
C1229       C  0.29047768  0.96744738  0.90128701    -0.05200
C1230       C  0.28487406  0.95632588  0.86555274    -0.32600
C1231       C  0.29003680  0.97730343  0.83593711     0.36600
C1232       C  0.30124638  0.51084884  0.84054369    -0.05600
C1233       C  0.30786807  0.52159864  0.87587864    -0.32500
C1234       C  0.30099849  0.50162483  0.90550360     0.36500
H1235       H  0.27900720  0.93045781  0.85931604     0.16900
O1236       O  0.28645357  0.96358626  0.80244322    -0.60000
H1237       H  0.31883811  0.54614811  0.88100461     0.16900
O1238       O  0.30835260  0.51466973  0.93870970    -0.60100
H1239       H  0.29380898  0.53523866  0.94169912     0.43900
H1240       H  0.30980361  0.95531528  0.79561063     0.43900
C1241       C  0.24845884  0.66275460  0.66306393    -0.05200
C1242       C  0.23219572  0.65228833  0.69444585    -0.32600
C1243       C  0.22506894  0.61795905  0.70033393     0.36600
C1244       C  0.23452593  0.59269266  0.67464232    -0.05600
C1245       C  0.25463724  0.60357482  0.64528525    -0.32500
C1246       C  0.26048675  0.63788001  0.63887778     0.36500
H1247       H  0.22304114  0.67099003  0.71366039     0.16900
O1248       O  0.20824070  0.60960874  0.73115366    -0.60000
H1249       H  0.26531869  0.58563301  0.62620519     0.16900
O1250       O  0.27738460  0.64685409  0.60822497    -0.60100
H1251       H  0.30171431  0.64998011  0.61535181     0.43900
H1252       H  0.18521815  0.62063430  0.72998915     0.43900
C1253       C  0.24628684  0.54218763  0.71263937    -0.05200
C1254       C  0.28186261  0.53541439  0.70964646    -0.32600
C1255       C  0.30139257  0.52465575  0.73905177     0.36600
C1256       C  0.28802041  0.52807404  0.77443981    -0.05600
C1257       C  0.25215282  0.52910407  0.77650783    -0.32500
C1258       C  0.23169930  0.53883311  0.74775914     0.36500
H1259       H  0.29466996  0.53741171  0.68404393     0.16900
O1260       O  0.33234760  0.00906666  0.73242272    -0.60000
H1261       H  0.23932801  0.52306496  0.80092871     0.16900
O1262       O  0.19757075  0.54552715  0.75524735    -0.60100
H1263       H  0.19697887  0.56290802  0.77453640     0.43900
H1264       H  0.32763108  0.98456789  0.73326317     0.43900
C1265       C  0.11733669  0.53219334  0.70173684    -0.05200
C1266       C  0.14230275  0.50696763  0.70404263    -0.32600
C1267       C  0.17634664  0.51348872  0.69450007     0.36600
C1268       C  0.18665045  0.54699069  0.68588699    -0.05600
C1269       C  0.16050833  0.57139715  0.68115486    -0.32500
C1270       C  0.12601674  0.56359397  0.68742041     0.36500
H1271       H  0.13540540  0.48209150  0.71322461     0.16900
O1272       O  0.19991774  0.48742377  0.69553288    -0.60000
H1273       H  0.16634208  0.59626917  0.67146764     0.16900
O1274       O  0.10100877  0.58709687  0.68015812    -0.60100
H1275       H  0.09550734  0.58365163  0.65455649     0.43900
H1276       H  0.20094449  0.48019214  0.72077680     0.43900
C1277       C  0.26894314  0.94776855  0.96518180    -0.05200
C1278       C  0.27055203  0.92409953  0.99308571    -0.32600
C1279       C  0.25220063  0.92820320  0.02498432     0.36600
C1280       C  0.22905052  0.95587222  0.02974807    -0.05600
C1281       C  0.23039736  0.98141992  0.00378301    -0.32500
C1282       C  0.24689317  0.97609706  0.97064327     0.36500
H1283       H  0.28810836  0.90277826  0.99107712     0.16900
O1284       O  0.25856814  0.90551438  0.55159978    -0.60000
H1285       H  0.21448286  0.00383379  0.00713667     0.16900
O1286       O  0.23926064  0.99794291  0.94375101    -0.60100
H1287       H  0.22053925  0.48746459  0.93028855     0.43900
H1288       H  0.28306161  0.90841996  0.55826537     0.43900
C1289       C  0.23055142  0.53441810  0.64296559    -0.05200
C1290       C  0.24949888  0.50392140  0.63948883    -0.32600
C1291       C  0.24515371  0.48230222  0.60982319     0.36600
C1292       C  0.21738019  0.48766410  0.58597056    -0.05600
C1293       C  0.20412646  0.52071466  0.58513518    -0.32500
C1294       C  0.21049022  0.54387795  0.61273715     0.36500
H1295       H  0.26579977  0.49474115  0.66045100     0.16900
O1296       O  0.26541069  0.95388993  0.60721290    -0.60000
H1297       H  0.18712474  0.52848412  0.56390396     0.16900
O1298       O  0.19510158  0.57519286  0.61101632    -0.60100
H1299       H  0.17003077  0.57133274  0.60836556     0.43900
H1300       H  0.28686256  0.96145353  0.59540930     0.43900
C1301       C  0.21048467  0.86020903  0.60852827    -0.05200
C1302       C  0.19605649  0.86387678  0.57454738    -0.32600
C1303       C  0.18875825  0.89563579  0.56086637     0.36600
C1304       C  0.19732196  0.92505566  0.58059831    -0.05600
C1305       C  0.20276774  0.92065439  0.61762004    -0.32500
C1306       C  0.21117602  0.88872298  0.63122360     0.36500
H1307       H  0.19221375  0.84217771  0.55726533     0.16900
O1308       O  0.17780673  0.89732233  0.52634991    -0.60000
H1309       H  0.20275962  0.94187392  0.63590299     0.16900
O1310       O  0.22026693  0.88588719  0.66637930    -0.60100
H1311       H  0.24489574  0.89222996  0.66728230     0.43900
H1312       H  0.15273376  0.89284616  0.52747633     0.43900
C1313       C  0.36302563  0.72330742  0.90310125    -0.05200
C1314       C  0.36817803  0.72374239  0.93987733    -0.32600
C1315       C  0.39891062  0.71250921  0.95495623     0.36600
C1316       C  0.42801004  0.70313174  0.93328847    -0.05600
C1317       C  0.42013822  0.69807476  0.89643171    -0.32500
C1318       C  0.38919234  0.70959820  0.88126771     0.36500
H1319       H  0.34739968  0.73143488  0.95774190     0.16900
O1320       O  0.39752324  0.70709468  0.99070876    -0.60000
H1321       H  0.43945549  0.68861481  0.87790691     0.16900
O1322       O  0.38494038  0.70706855  0.84505817    -0.60100
H1323       H  0.39625779  0.72725188  0.83517747     0.43900
H1324       H  0.38755836  0.68428390  0.99329103     0.43900
C1325       C  0.27927646  0.63961343  0.84001351    -0.05200
C1326       C  0.25627835  0.61354796  0.84547432    -0.32600
C1327       C  0.26583001  0.57996010  0.83778199     0.36600
C1328       C  0.29923768  0.57195109  0.82298133    -0.05600
C1329       C  0.32338516  0.59840878  0.82446483    -0.32500
C1330       C  0.31329505  0.63180303  0.83035026     0.36500
H1331       H  0.23097992  0.61913872  0.85655829     0.16900
O1332       O  0.24463931  0.55522065  0.85047238    -0.60000
H1333       H  0.35066178  0.59404448  0.82171684     0.16900
O1334       O  0.33761384  0.65655407  0.82885634    -0.60100
H1335       H  0.33947656  0.66234815  0.80323781     0.43900
H1336       H  0.22084814  0.56111417  0.84299142     0.43900
C1337       C  0.27089738  0.83742581  0.89978847    -0.05200
C1338       C  0.30362192  0.84478281  0.91296216    -0.32600
C1339       C  0.31219275  0.87743847  0.92432835     0.36600
C1340       C  0.28811986  0.90464498  0.92086550    -0.05600
C1341       C  0.25455059  0.89617146  0.90907065    -0.32500
C1342       C  0.24603573  0.86320981  0.89843674     0.36500
H1343       H  0.32270330  0.82474758  0.91507784     0.16900
O1344       O  0.34367051  0.88148487  0.94004647    -0.60000
H1345       H  0.23481782  0.91563711  0.90771290     0.16900
O1346       O  0.21353976  0.85661871  0.88623779    -0.60100
H1347       H  0.19996943  0.85093447  0.90781074     0.43900
H1348       H  0.34044842  0.87470448  0.96522898     0.43900
C1349       C  0.09111330  0.72477729  0.82084170    -0.05200
C1350       C  0.11044523  0.75031044  0.80350654    -0.32600
C1351       C  0.14572793  0.75512893  0.81026772     0.36600
C1352       C  0.16318102  0.73376572  0.83376990    -0.05600
C1353       C  0.14568561  0.70593067  0.84729314    -0.32500
C1354       C  0.11090365  0.70047620  0.83985089     0.36500
H1355       H  0.09907446  0.76705782  0.78442751     0.16900
O1356       O  0.16258293  0.78121770  0.79427690    -0.60000
H1357       H  0.15919283  0.68793606  0.86386134     0.16900
O1358       O  0.09609719  0.67187557  0.85310482    -0.60100
H1359       H  0.10421190  0.65322249  0.83721945     0.43900
H1360       H  0.15985071  0.80063931  0.81099166     0.43900
C1361       C  0.44998087  0.83738385  0.55413060    -0.05200
C1362       C  0.46818420  0.86015729  0.57619256    -0.32600
C1363       C  0.48088530  0.89031310  0.56350618     0.36600
C1364       C  0.47364630  0.90026480  0.52862053    -0.05600
C1365       C  0.45072190  0.88088969  0.50814490    -0.32500
C1366       C  0.43797267  0.85006460  0.52112990     0.36500
H1367       H  0.47371847  0.85460813  0.60355919     0.16900
O1368       O  0.50039760  0.91004501  0.58573976    -0.60000
H1369       H  0.44235839  0.88979789  0.98234329     0.16900
O1370       O  0.41503316  0.83189124  0.50103963    -0.60100
H1371       H  0.42671274  0.82693005  0.97787940     0.43900
H1372       H  0.52446122  0.90207711  0.58203108     0.43900
C1373       C  0.33208865  0.94853123  0.94665534    -0.05200
C1374       C  0.33866917  0.96176574  0.98140074    -0.32600
C1375       C  0.37015206  0.97592456  0.99045171     0.36600
C1376       C  0.39646578  0.97805544  0.96483393    -0.05600
C1377       C  0.39120519  0.96352189  0.93091986    -0.32500
C1378       C  0.36002715  0.94830214  0.92200518     0.36500
H1379       H  0.31917708  0.96379971  0.00186922     0.16900
O1380       O  0.37434587  0.98845581  0.52444487    -0.60000
H1381       H  0.41145419  0.96372347  0.91091267     0.16900
O1382       O  0.35611521  0.93560066  0.88804108    -0.60100
H1383       H  0.37171408  0.91567711  0.88630035     0.43900
H1384       H  0.38105869  0.96869875  0.53896796     0.43900
C1385       C  0.16502709  0.96894786  0.54807330    -0.05200
C1386       C  0.14022890  0.97900348  0.57416236    -0.32600
C1387       C  0.10657099  0.98913340  0.56504938     0.36600
C1388       C  0.09600999  0.98833259  0.52914708    -0.05600
C1389       C  0.11996328  0.97764131  0.50322195    -0.32500
C1390       C  0.15315955  0.96666665  0.51206390     0.36500
H1391       H  0.14736220  0.47933809  0.60215124     0.16900
O1392       O  0.08408074  0.49850232  0.59181683    -0.60000
H1393       H  0.11245685  0.97587498  0.97546919     0.16900
O1394       O  0.17259827  0.95216153  0.98512643    -0.60100
H1395       H  0.15876344  0.93365362  0.97467036     0.43900
H1396       H  0.08973998  0.52228150  0.59757634     0.43900
C1397       C  0.47937094  0.66466017  0.95312943    -0.05200
C1398       C  0.46926823  0.63872573  0.92907141    -0.32600
C1399       C  0.47777421  0.60466559  0.93427645     0.36600
C1400       C  0.49644143  0.59500658  0.96439582    -0.05600
C1401       C  0.50880165  0.62005251  0.98724459    -0.32500
C1402       C  0.50220742  0.65440892  0.98111216     0.36500
H1403       H  0.45393309  0.64393707  0.90609535     0.16900
O1404       O  0.46519940  0.58076577  0.91118313    -0.60000
H1405       H  0.02377108  0.61293447  0.51036276     0.16900
O1406       O  0.01725947  0.67739421  0.50380248    -0.60100
H1407       H  0.04207243  0.67131465  0.50522169     0.43900
H1408       H  0.48247345  0.57906113  0.89163073     0.40300
O1409       O  0.98146821  0.45816720  0.03900573    -0.72700
O1410       O  0.99022639  0.05245262  0.00732436    -0.73700
O1411       O  0.93751902  0.50231220  0.00563777    -0.62300
O1412       O  0.53635341  0.50467013  0.03977507    -0.70700
O1413       O  0.55150861  0.48631604  0.48591145    -0.70200
O1414       O  0.95540673  0.48582367  0.45187270    -0.61500
O1415       O  0.00668008  0.03571987  0.45304032    -0.74000
O1416       O  0.99594398  0.43863044  0.48516464    -0.72800
Cu1417     Cu  0.98606622  0.50543745  0.02473285     1.04600
Cu1418     Cu  0.00349273  0.48631972  0.46720030     1.04300
C1419       C  0.98465741  0.43374393  0.01689173     0.93500
C1420       C  0.99842753  0.05933383  0.47520957     0.92700
C1421       C  0.93115964  0.49044246  0.47437621     0.84800
C1422       C  0.55962748  0.49399047  0.01795880     0.91100
O1423       O  0.80286328  0.22808823  0.41098608    -0.72700
O1424       O  0.70641340  0.23291890  0.37779143    -0.73700
O1425       O  0.75792826  0.18245872  0.37951815    -0.62300
O1426       O  0.75344185  0.28064969  0.40901911    -0.70700
O1427       O  0.77236489  0.29457564  0.35517941    -0.70200
O1428       O  0.77628815  0.19744929  0.32573518    -0.61500
O1429       O  0.72316146  0.24790816  0.32359256    -0.74000
O1430       O  0.82293731  0.24126537  0.35747781    -0.72800
Cu1431     Cu  0.75423645  0.23085067  0.39605707     1.04600
Cu1432     Cu  0.77400198  0.24617491  0.33849628     1.04300
C1433       C  0.82817074  0.23189192  0.38964220     0.93500
C1434       C  0.69928425  0.23923656  0.34537344     0.92700
C1435       C  0.76983484  0.17476034  0.34857845     0.84800
C1436       C  0.76413946  0.30283545  0.38715503     0.91100
C1437       C  0.70248801  0.45936834  0.06103822    -0.02200
C1438       C  0.72518590  0.05430414  0.17930552    -0.02200
C1439       C  0.79462281  0.44215257  0.43316060    -0.02200
C1440       C  0.80971805  0.03531558  0.30945410    -0.02200
O1441       O  0.55710072  0.03118407  0.19474258    -0.72700
O1442       O  0.96239934  0.02745741  0.23406431    -0.73700
O1443       O  0.51381303  0.07818853  0.22939640    -0.62300
O1444       O  0.50867372  0.47804066  0.20133248    -0.70700
O1445       O  0.52932175  0.46580982  0.25470585    -0.70200
O1446       O  0.53193890  0.06219467  0.28277261    -0.61500
O1447       O  0.98086253  0.01213725  0.28742902    -0.74000
O1448       O  0.57799006  0.01744183  0.24781625    -0.72800
Cu1449     Cu  0.50947256  0.02902283  0.21300806     1.04600
Cu1450     Cu  0.53056778  0.01375408  0.26997678     1.04300
C1451       C  0.58249583  0.02618375  0.21531345     0.93500
C1452       C  0.95622809  0.02061173  0.26664404     0.92700
C1453       C  0.52456987  0.08540211  0.26084849     0.84800
C1454       C  0.52001764  0.45630338  0.22372249     0.91100
O1455       O  0.79527245  0.27638638  0.14348141    -0.72700
O1456       O  0.69921431  0.27057209  0.18173916    -0.73700
O1457       O  0.75457269  0.22240513  0.17602661    -0.62300
O1458       O  0.73683278  0.32071714  0.14931757    -0.70700
O1459       O  0.71944934  0.30206473  0.09657241    -0.70200
O1460       O  0.73848230  0.20667018  0.12172960    -0.61500
O1461       O  0.68103339  0.25249206  0.12880510    -0.74000
O1462       O  0.77831411  0.25966496  0.08986067    -0.72800
Cu1463     Cu  0.74754741  0.27268198  0.16456076     1.04600
Cu1464     Cu  0.72902540  0.25430665  0.10751065     1.04300
C1465       C  0.80179927  0.27123852  0.11036291     0.93500
C1466       C  0.67480729  0.26373503  0.16038175     0.92700
C1467       C  0.74789035  0.19900640  0.15318383     0.84800
C1468       C  0.72305892  0.32622503  0.11891613     0.91100
C1469       C  0.55064470  0.22151425  0.31769925    -0.02200
C1470       C  0.96719479  0.20237368  0.44674606    -0.02200
C1471       C  0.53201203  0.30812552  0.19357526    -0.02200
C1472       C  0.94440674  0.29988659  0.06554390    -0.02200
C1473       C  0.51028677  0.29882154  0.16003665    -0.05200
C1474       C  0.97549862  0.28896698  0.16290016    -0.32600
C1475       C  0.95516312  0.28281915  0.13285648     0.36600
C1476       C  0.96726406  0.29191630  0.09863838    -0.05600
C1477       C  0.00286990  0.29769586  0.09524691    -0.32500
C1478       C  0.02340067  0.30354221  0.12492559     0.36500
H1479       H  0.46320247  0.28731732  0.18880619     0.16900
O1480       O  0.92387344  0.26791443  0.13783376    -0.60000
H1481       H  0.01388266  0.30300192  0.06936625     0.16900
O1482       O  0.55544025  0.31653114  0.11879619    -0.60100
H1483       H  0.05207311  0.34136603  0.11900656     0.43900
H1484       H  0.92825522  0.24343680  0.13420206     0.43900
C1485       C  0.97008980  0.22531524  0.98112233    -0.05200
C1486       C  0.98197247  0.25879685  0.97846620    -0.32600
C1487       C  0.97762608  0.28243908  0.00616036     0.36600
C1488       C  0.95785753  0.27415657  0.03671739    -0.05600
C1489       C  0.95269748  0.23957151  0.04253926    -0.32500
C1490       C  0.95890728  0.21529475  0.01572728     0.36500
H1491       H  0.99454561  0.26773687  0.45468077     0.16900
O1492       O  0.99554334  0.31211162  0.00430515    -0.60000
H1493       H  0.94127510  0.23147712  0.06741658     0.16900
O1494       O  0.94964287  0.18254007  0.02240699    -0.60100
H1495       H  0.96212461  0.17573263  0.04426390     0.43900
H1496       H  0.99070105  0.32194232  0.98059609     0.43900
C1497       C  0.53217924  0.22952059  0.35436773    -0.05200
C1498       C  0.54770591  0.22094216  0.38712925    -0.32600
C1499       C  0.52797466  0.21338500  0.41736733     0.36600
C1500       C  0.49168364  0.21718488  0.41699943    -0.05600
C1501       C  0.97929913  0.23816439  0.38954958    -0.32500
C1502       C  0.49711496  0.24050520  0.35709917     0.36500
H1503       H  0.57505196  0.21856624  0.39006539     0.16900
O1504       O  0.54499823  0.20267016  0.44694812    -0.60000
H1505       H  0.95414635  0.25001382  0.39135725     0.16900
O1506       O  0.97888331  0.25183635  0.32833251    -0.60100
H1507       H  0.96630838  0.23189022  0.31921863     0.43900
H1508       H  0.55168204  0.22355101  0.45981388     0.43900
C1509       C  0.52182405  0.28811711  0.22855978    -0.05200
C1510       C  0.52979249  0.30170478  0.26281427    -0.32600
C1511       C  0.53767776  0.28124519  0.29204069     0.36600
C1512       C  0.53602885  0.24588619  0.28872823    -0.05600
C1513       C  0.51763402  0.23380993  0.25904449    -0.32500
C1514       C  0.51216661  0.25330954  0.22875195     0.36500
H1515       H  0.53077802  0.32824071  0.26806962     0.16900
O1516       O  0.54897921  0.29601778  0.32308092    -0.60000
H1517       H  0.50774094  0.20848126  0.25817757     0.16900
O1518       O  0.49576756  0.23794027  0.20053416    -0.60100
H1519       H  0.50390946  0.21416063  0.19854343     0.43900
H1520       H  0.52808825  0.30585520  0.33465750     0.43900
C1521       C  0.63959083  0.27389059  0.17063209    -0.05200
C1522       C  0.61280612  0.25102549  0.16991038    -0.32600
C1523       C  0.57874069  0.26175233  0.17606225     0.36600
C1524       C  0.57036869  0.29618646  0.18491224    -0.05600
C1525       C  0.59800994  0.31906889  0.18153618    -0.32500
C1526       C  0.63200436  0.30819285  0.17621428     0.36500
H1527       H  0.61805936  0.22483961  0.16305419     0.16900
O1528       O  0.55380346  0.23867023  0.16921075    -0.60000
H1529       H  0.59394423  0.34586315  0.18006098     0.16900
O1530       O  0.65739485  0.33183529  0.17336444    -0.60100
H1531       H  0.66540970  0.33583244  0.19811739     0.43900
H1532       H  0.55157404  0.23780056  0.14286614     0.43900
C1533       C  0.90481013  0.29613675  0.07311759    -0.05200
C1534       C  0.88371565  0.27390684  0.05322899    -0.32600
C1535       C  0.85040600  0.26547329  0.06475788     0.36600
C1536       C  0.83635668  0.28044721  0.09587336    -0.05600
C1537       C  0.85509590  0.30620979  0.11268820    -0.32500
C1538       C  0.88819121  0.31497541  0.10083416     0.36500
H1539       H  0.89283725  0.26237941  0.02872783     0.16900
O1540       O  0.83216723  0.24207408  0.04563499    -0.60000
H1541       H  0.84413257  0.31964748  0.13545384     0.16900
O1542       O  0.90532195  0.33980624  0.11900255    -0.60100
H1543       H  0.89660875  0.36128573  0.10899888     0.43900
H1544       H  0.83908823  0.21993482  0.05553970     0.43900
C1545       C  0.52904648  0.12044396  0.27319141    -0.05200
C1546       C  0.51297326  0.13056462  0.30497831    -0.32600
C1547       C  0.52000058  0.16169122  0.32109215     0.36600
C1548       C  0.54372718  0.18434938  0.30504501    -0.05600
C1549       C  0.56089461  0.17279499  0.27363329    -0.32500
C1550       C  0.55354103  0.14158319  0.25775752     0.36500
H1551       H  0.99502753  0.11378352  0.31789568     0.16900
O1552       O  0.50321922  0.16884440  0.35243536    -0.60000
H1553       H  0.57943743  0.18879284  0.26052609     0.16900
O1554       O  0.57121646  0.13161779  0.22769898    -0.60100
H1555       H  0.59464482  0.12558643  0.23613978     0.43900
H1556       H  0.01551413  0.15559064  0.37069046     0.43900
C1557       C  0.52345234  0.41979687  0.21451298    -0.05200
C1558       C  0.49960497  0.40397777  0.19255099    -0.32600
C1559       C  0.50062419  0.36887159  0.18657402     0.36600
C1560       C  0.52794392  0.34798289  0.20043515    -0.05600
C1561       C  0.55151984  0.36517380  0.22283657    -0.32500
C1562       C  0.54956130  0.39990498  0.22979643     0.36500
H1563       H  0.47859105  0.41863854  0.18147601     0.16900
O1564       O  0.47301737  0.35588743  0.16898199    -0.60000
H1565       H  0.57211535  0.35143349  0.23577028     0.16900
O1566       O  0.57421590  0.41431916  0.25099065    -0.60100
H1567       H  0.56723924  0.40917681  0.27581941     0.43900
H1568       H  0.95453996  0.35424486  0.18723851     0.43900
C1569       C  0.84942989  0.03272095  0.30035689    -0.05200
C1570       C  0.87155529  0.00881703  0.31701335    -0.32600
C1571       C  0.90638373  0.00493576  0.30715404     0.36600
C1572       C  0.92027024  0.02454994  0.27977040    -0.05600
C1573       C  0.89922462  0.04880953  0.26369844    -0.32500
C1574       C  0.86480592  0.05357623  0.27391377     0.36500
H1575       H  0.86229197  0.99219167  0.33748033     0.16900
O1576       O  0.92630041  0.98119965  0.32390002    -0.60000
H1577       H  0.90952309  0.06449946  0.24276136     0.16900
O1578       O  0.84549617  0.07718667  0.25593944    -0.60100
H1579       H  0.85788829  0.09886975  0.25806374     0.43900
H1580       H  0.92314895  0.96008186  0.30992444     0.43900
C1581       C  0.79053667  0.46752289  0.40122071    -0.05200
C1582       C  0.78485144  0.45637644  0.36550549    -0.32600
C1583       C  0.79001386  0.47730695  0.33585517     0.36600
C1584       C  0.80115064  0.01087064  0.34068583    -0.05600
C1585       C  0.80768182  0.02159864  0.37604576    -0.32500
C1586       C  0.80084019  0.00156203  0.40563170     0.36500
H1587       H  0.77890599  0.43052002  0.35930401     0.16900
O1588       O  0.78632970  0.46356234  0.30238538    -0.60000
H1589       H  0.81857253  0.04617203  0.38122743     0.16900
O1590       O  0.80811195  0.01458900  0.43886579    -0.60100
H1591       H  0.79350943  0.03511379  0.44186178     0.43900
H1592       H  0.80970505  0.45549885  0.29537818     0.43900
C1593       C  0.74839111  0.16267273  0.16304830    -0.05200
C1594       C  0.73210099  0.15224026  0.19442945    -0.32600
C1595       C  0.72498066  0.11791729  0.20036242     0.36600
C1596       C  0.73447079  0.09262242  0.17471618    -0.05600
C1597       C  0.75462034  0.10347280  0.14537166    -0.32500
C1598       C  0.76045881  0.13777274  0.13891544     0.36500
H1599       H  0.72292073  0.17096349  0.21360766     0.16900
O1600       O  0.70811981  0.10960180  0.23117527    -0.60000
H1601       H  0.76533225  0.08550879  0.12633280     0.16900
O1602       O  0.77739183  0.14671595  0.10827348    -0.60100
H1603       H  0.80176159  0.14959433  0.11537144     0.43900
H1604       H  0.68511437  0.12065959  0.22999509     0.43900
C1605       C  0.74617959  0.04213108  0.21276357    -0.05200
C1606       C  0.78174840  0.03530585  0.20979876    -0.32600
C1607       C  0.80126208  0.02460058  0.23923759     0.36600
C1608       C  0.78790362  0.02814984  0.27462038    -0.05600
C1609       C  0.75203391  0.02924149  0.27668972    -0.32500
C1610       C  0.73158081  0.03886585  0.24789211     0.36500
H1611       H  0.79456858  0.03723741  0.18419718     0.16900
O1612       O  0.83249157  0.50919708  0.23218644    -0.60000
H1613       H  0.73920405  0.02329632  0.30113430     0.16900
O1614       O  0.69743836  0.04553714  0.25533734    -0.60100
H1615       H  0.69680839  0.06294230  0.27459277     0.43900
H1616       H  0.82763844  0.48469726  0.23210993     0.43900
C1617       C  0.61723384  0.03221051  0.20179569    -0.05200
C1618       C  0.64217926  0.00696460  0.20409919    -0.32600
C1619       C  0.67623217  0.01346343  0.19457491     0.36600
C1620       C  0.68656229  0.04695531  0.18595975    -0.05600
C1621       C  0.66043753  0.07137808  0.18121181    -0.32500
C1622       C  0.62594013  0.06360604  0.18748427     0.36500
H1623       H  0.63526117  0.98209325  0.21327861     0.16900
O1624       O  0.69978413  0.98738381  0.19562251    -0.60000
H1625       H  0.66628838  0.09624279  0.17151621     0.16900
O1626       O  0.60095457  0.08713759  0.18024181    -0.60100
H1627       H  0.59540446  0.08367641  0.15465300     0.43900
H1628       H  0.70082962  0.98019026  0.22087713     0.43900
C1629       C  0.76902116  0.44787375  0.46514143    -0.05200
C1630       C  0.77058716  0.42415912  0.49300599    -0.32600
C1631       C  0.75223721  0.42823732  0.52490361     0.36600
C1632       C  0.72911571  0.45592099  0.52970496    -0.05600
C1633       C  0.73049213  0.48150581  0.50377863    -0.32500
C1634       C  0.74701667  0.47622881  0.47064479     0.36500
H1635       H  0.78812010  0.40281997  0.49097295     0.16900
O1636       O  0.75861492  0.40553762  0.05151636    -0.60000
H1637       H  0.71459781  0.50392959  0.50716354     0.16900
O1638       O  0.73946667  0.49815468  0.44380172    -0.60100
H1639       H  0.72031986  0.98715540  0.43030427     0.43900
H1640       H  0.78309331  0.40847151  0.05822343     0.43900
C1641       C  0.73047263  0.03434744  0.14306029    -0.05200
C1642       C  0.74939859  0.00383941  0.13958815    -0.32600
C1643       C  0.74507745  0.98224436  0.10989669     0.36600
C1644       C  0.71733511  0.98763845  0.08600569    -0.05600
C1645       C  0.70410427  0.02069438  0.08518060    -0.32500
C1646       C  0.71044655  0.04383310  0.11281304     0.36500
H1647       H  0.76566478  0.99463651  0.16056873     0.16900
O1648       O  0.76551572  0.45398392  0.10712398    -0.60000
H1649       H  0.68713026  0.02848456  0.06393428     0.16900
O1650       O  0.69507453  0.07515511  0.11109503    -0.60100
H1651       H  0.67000436  0.07130617  0.10842553     0.43900
H1652       H  0.78697595  0.46156697  0.09534858     0.43900
C1653       C  0.71042689  0.36018118  0.10851149    -0.05200
C1654       C  0.69603712  0.36389043  0.07451821    -0.32600
C1655       C  0.68881157  0.39566890  0.06083763     0.36600
C1656       C  0.69742574  0.42507523  0.08057103    -0.05600
C1657       C  0.70289543  0.42065827  0.11758751    -0.32500
C1658       C  0.71119336  0.38869946  0.13120036     0.36500
H1659       H  0.69215188  0.34220097  0.05723406     0.16900
O1660       O  0.67784443  0.39738323  0.02632691    -0.60000
H1661       H  0.70294828  0.44187580  0.13587091     0.16900
O1662       O  0.72023034  0.38583630  0.16636840    -0.60100
H1663       H  0.74485664  0.39219028  0.16732161     0.43900
H1664       H  0.65275152  0.39300962  0.02747655     0.43900
C1665       C  0.86307761  0.22360654  0.40305502    -0.05200
C1666       C  0.86823577  0.22411431  0.43982817    -0.32600
C1667       C  0.89893912  0.21283748  0.45492896     0.36600
C1668       C  0.92801158  0.20334227  0.43327840    -0.05600
C1669       C  0.92014358  0.19827514  0.39642459    -0.32500
C1670       C  0.88922081  0.20982953  0.38124053     0.36500
H1671       H  0.84747230  0.23188256  0.45767650     0.16900
O1672       O  0.89754131  0.20750354  0.49069574    -0.60000
H1673       H  0.93945283  0.18875313  0.37792345     0.16900
O1674       O  0.88495104  0.20723971  0.34503649    -0.60100
H1675       H  0.89682734  0.22706803  0.33505179     0.43900
H1676       H  0.88746440  0.18475023  0.49334151     0.43900
C1677       C  0.77937904  0.13974313  0.34004032    -0.05200
C1678       C  0.75633816  0.11371839  0.34553881    -0.32600
C1679       C  0.76584646  0.08010214  0.33793717     0.36600
C1680       C  0.79923821  0.07202300  0.32315480    -0.05600
C1681       C  0.82343648  0.09844415  0.32462276    -0.32500
C1682       C  0.81340102  0.13186376  0.33045144     0.36500
H1683       H  0.73104245  0.11936476  0.35659908     0.16900
O1684       O  0.74463524  0.05541290  0.35070226    -0.60000
H1685       H  0.85070840  0.09403122  0.32188960     0.16900
O1686       O  0.83777148  0.15656698  0.32897678    -0.60100
H1687       H  0.83948570  0.16252554  0.30339481     0.43900
H1688       H  0.72084254  0.06132923  0.34325530     0.43900
C1689       C  0.77085817  0.33755238  0.39976931    -0.05200
C1690       C  0.80361987  0.34489685  0.41284944    -0.32600
C1691       C  0.81223065  0.37754436  0.42419512     0.36600
C1692       C  0.78815103  0.40475110  0.42082040    -0.05600
C1693       C  0.75454175  0.39628901  0.40912675    -0.32500
C1694       C  0.74598811  0.36333503  0.39851451     0.36500
H1695       H  0.82270763  0.32485936  0.41489122     0.16900
O1696       O  0.84376442  0.38158381  0.43979093    -0.60000
H1697       H  0.73480765  0.41575890  0.40783514     0.16900
O1698       O  0.71345024  0.35675841  0.38642642    -0.60100
H1699       H  0.70010304  0.35048047  0.40796040     0.43900
H1700       H  0.84060731  0.37488048  0.46500725     0.43900
C1701       C  0.59116207  0.22484139  0.32086961    -0.05200
C1702       C  0.61048033  0.25035324  0.30348580    -0.32600
C1703       C  0.64577354  0.25516703  0.31020231     0.36600
C1704       C  0.66323926  0.23382642  0.33371568    -0.05600
C1705       C  0.64575305  0.20600673  0.34728325    -0.32500
C1706       C  0.61096596  0.20055213  0.33988200     0.36500
H1707       H  0.59909056  0.26708841  0.28440589     0.16900
O1708       O  0.66263151  0.28122716  0.29416210    -0.60000
H1709       H  0.65927070  0.18802588  0.36385919     0.16900
O1710       O  0.59617070  0.17196043  0.35317387    -0.60100
H1711       H  0.60429864  0.15329116  0.33732128     0.43900
H1712       H  0.65920634  0.30088204  0.31043345     0.43900
C1713       C  0.94980011  0.33737220  0.05418606    -0.05200
C1714       C  0.96786082  0.36018898  0.07632077    -0.32600
C1715       C  0.98054876  0.39037048  0.06368506     0.36600
C1716       C  0.97346484  0.40028839  0.02874910    -0.05600
C1717       C  0.95063156  0.38087549  0.00819446    -0.32500
C1718       C  0.93786294  0.35004075  0.02115175     0.36500
H1719       H  0.97330914  0.35463881  0.10370639     0.16900
O1720       O  0.99991055  0.41014969  0.08601459    -0.60000
H1721       H  0.94235202  0.38977020  0.48235525     0.16900
O1722       O  0.91498599  0.33184572  0.00100486    -0.60100
H1723       H  0.92670199  0.32692895  0.47785854     0.43900
H1724       H  0.02399939  0.40218949  0.08248293     0.43900
C1725       C  0.83216408  0.44861012  0.44661739    -0.05200
C1726       C  0.83875736  0.46173506  0.48140812    -0.32600
C1727       C  0.87023988  0.47586679  0.49050255     0.36600
C1728       C  0.89652324  0.47814203  0.46487077    -0.05600
C1729       C  0.89125786  0.46371452  0.43090665    -0.32500
C1730       C  0.86009932  0.44846674  0.42196249     0.36500
H1731       H  0.81928827  0.46367388  0.50190567     0.16900
O1732       O  0.87450566  0.48818432  0.02457292    -0.60000
H1733       H  0.91149419  0.46400683  0.41088897     0.16900
O1734       O  0.85619783  0.43583148  0.38796992    -0.60100
H1735       H  0.87183705  0.41594218  0.38617313     0.43900
H1736       H  0.88163327  0.46840557  0.03885897     0.43900
C1737       C  0.66509756  0.46896022  0.04808068    -0.05200
C1738       C  0.64030835  0.47893850  0.07420872    -0.32600
C1739       C  0.60663388  0.48905500  0.06514399     0.36600
C1740       C  0.59605470  0.48831017  0.02924968    -0.05600
C1741       C  0.62000757  0.47770939  0.00328090    -0.32500
C1742       C  0.65322044  0.46675298  0.01207349     0.36500
H1743       H  0.64727729  0.97945228  0.10210448     0.16900
O1744       O  0.58402704  0.99863178  0.09169448    -0.60000
H1745       H  0.61248588  0.47595521  0.47551921     0.16900
O1746       O  0.67266670  0.45230928  0.48509297    -0.60100
H1747       H  0.65886991  0.43376143  0.47464986     0.43900
H1748       H  0.58907423  0.02268990  0.09671319     0.43900
C1749       C  0.97925814  0.16469445  0.45308082    -0.05200
C1750       C  0.96888884  0.13876414  0.42914075    -0.32600
C1751       C  0.97734781  0.10468055  0.43429660     0.36600
C1752       C  0.99626970  0.09499746  0.46423208    -0.05600
C1753       C  0.00882152  0.12001915  0.48699096    -0.32500
C1754       C  0.00220578  0.15438849  0.48094638     0.36500
H1755       H  0.95335739  0.14397843  0.40630952     0.16900
O1756       O  0.96445763  0.08077713  0.41139589    -0.60000
H1757       H  0.52391018  0.11285226  0.01001953     0.16900
O1758       O  0.51728554  0.17731644  0.00367608    -0.60100
H1759       H  0.54208448  0.17118695  0.00512742     0.43900
H1760       H  0.98053965  0.08027017  0.39073134     0.40300
O1761       O  0.98145567  0.45815636  0.53898685    -0.72700
O1762       O  0.99023686  0.05245031  0.50726717    -0.73700
O1763       O  0.93750832  0.50230511  0.50561174    -0.62300
O1764       O  0.53635794  0.50466533  0.53978028    -0.70700
O1765       O  0.55151455  0.48631271  0.98591203    -0.70200
O1766       O  0.95541167  0.48583904  0.95189385    -0.61500
O1767       O  0.00667428  0.03573604  0.95309437    -0.74000
O1768       O  0.99594159  0.43864216  0.98517878    -0.72800
Cu1769     Cu  0.98605359  0.50542771  0.52471239     1.04600
Cu1770     Cu  0.00349749  0.48633004  0.96721829     1.04300
C1771       C  0.98465770  0.43373123  0.51687693     0.93500
C1772       C  0.99841953  0.05934388  0.97527001     0.92700
C1773       C  0.93116760  0.49045134  0.97440209     0.84800
C1774       C  0.55962759  0.49398396  0.51795925     0.91100
O1775       O  0.80288178  0.22809834  0.91098596    -0.72700
O1776       O  0.70643014  0.23293776  0.87779987    -0.73700
O1777       O  0.75794058  0.18247342  0.87951593    -0.62300
O1778       O  0.75346008  0.28066075  0.90903501    -0.70700
O1779       O  0.77238097  0.29459704  0.85519785    -0.70200
O1780       O  0.77630118  0.19746888  0.82573524    -0.61500
O1781       O  0.72317669  0.24793513  0.82360287    -0.74000
O1782       O  0.82295492  0.24128373  0.85747942    -0.72800
Cu1783     Cu  0.75425355  0.23086397  0.89606226     1.04600
Cu1784     Cu  0.77401775  0.24619659  0.83850369     1.04300
C1785       C  0.82818884  0.23190708  0.88964241     0.93500
C1786       C  0.69930011  0.23926261  0.84538386     0.92700
C1787       C  0.76984446  0.17477675  0.84857478     0.84800
C1788       C  0.76415451  0.30285152  0.88717523     0.91100
C1789       C  0.70249531  0.45934595  0.56102864    -0.02200
C1790       C  0.72519197  0.05428123  0.67928563    -0.02200
C1791       C  0.79462955  0.44216854  0.93319000    -0.02200
C1792       C  0.80970714  0.03532099  0.80945247    -0.02200
O1793       O  0.55710741  0.03120222  0.69472245    -0.72700
O1794       O  0.96239882  0.02746737  0.73407351    -0.73700
O1795       O  0.51383435  0.07820069  0.72939372    -0.62300
O1796       O  0.50871603  0.47802841  0.70136385    -0.70700
O1797       O  0.52935769  0.46580873  0.75474251    -0.70200
O1798       O  0.53197446  0.06219782  0.78276245    -0.61500
O1799       O  0.98085585  0.01213555  0.78743630    -0.74000
O1800       O  0.57800447  0.01744427  0.74778904    -0.72800
Cu1801     Cu  0.50948615  0.02904027  0.71299624     1.04600
Cu1802     Cu  0.53058992  0.01376094  0.76995941     1.04300
C1803       C  0.58250429  0.02619207  0.71528755     0.93500
C1804       C  0.95622307  0.02061371  0.76665046     0.92700
C1805       C  0.52460430  0.08540775  0.76084229     0.84800
C1806       C  0.52005847  0.45629506  0.72375948     0.91100
O1807       O  0.79528613  0.27635907  0.64346049    -0.72700
O1808       O  0.69922959  0.27054244  0.68172487    -0.73700
O1809       O  0.75458956  0.22237638  0.67600200    -0.62300
O1810       O  0.73684522  0.32069061  0.64930580    -0.70700
O1811       O  0.71945912  0.30204227  0.59656016    -0.70200
O1812       O  0.73849721  0.20664486  0.62170449    -0.61500
O1813       O  0.68104628  0.25246578  0.62879071    -0.74000
O1814       O  0.77832769  0.25964223  0.58983838    -0.72800
Cu1815     Cu  0.74756207  0.27265370  0.66454264     1.04600
Cu1816     Cu  0.72903799  0.25428269  0.60749202     1.04300
C1817       C  0.80181380  0.27121240  0.61034191     0.93500
C1818       C  0.67482118  0.26370838  0.66036795     0.92700
C1819       C  0.74790757  0.19897918  0.65315734     0.84800
C1820       C  0.72306879  0.32620085  0.61890609     0.91100
C1821       C  0.55065911  0.22151453  0.81770525    -0.02200
C1822       C  0.96720199  0.20238230  0.94676523    -0.02200
C1823       C  0.53202971  0.30811757  0.69356627    -0.02200
C1824       C  0.94442783  0.29986651  0.56553891    -0.02200
C1825       C  0.51029480  0.29882781  0.66003030    -0.05200
C1826       C  0.97550938  0.28895654  0.66290271    -0.32600
C1827       C  0.95518012  0.28280164  0.63285454     0.36600
C1828       C  0.96728317  0.29190080  0.59863757    -0.05600
C1829       C  0.00288815  0.29768553  0.59525163    -0.32500
C1830       C  0.02341524  0.30353321  0.62493359     0.36500
H1831       H  0.46322363  0.28729389  0.68880845     0.16900
O1832       O  0.92389557  0.26788530  0.63782458    -0.60000
H1833       H  0.01390378  0.30298962  0.56937185     0.16900
O1834       O  0.55544047  0.31655007  0.61878910    -0.60100
H1835       H  0.05210035  0.34134679  0.61900433     0.43900
H1836       H  0.92830272  0.24339993  0.63426661     0.43900
C1837       C  0.97008511  0.22530311  0.48110540    -0.05200
C1838       C  0.98197625  0.25878197  0.47845313    -0.32600
C1839       C  0.97764580  0.28241879  0.50615501     0.36600
C1840       C  0.95788026  0.27413609  0.53671397    -0.05600
C1841       C  0.95271434  0.23955189  0.54253176    -0.32500
C1842       C  0.95890855  0.21527904  0.51571208     0.36500
H1843       H  0.99454387  0.26775105  0.95469480     0.16900
O1844       O  0.99557508  0.31208476  0.50430620    -0.60000
H1845       H  0.94129675  0.23145660  0.56741138     0.16900
O1846       O  0.94964835  0.18252315  0.52239159    -0.60100
H1847       H  0.96213349  0.17571499  0.54424919     0.43900
H1848       H  0.99074100  0.32192052  0.48059625     0.43900
C1849       C  0.53219075  0.22950852  0.85437442    -0.05200
C1850       C  0.54771173  0.22089952  0.88712983    -0.32600
C1851       C  0.52797944  0.21334891  0.91736781     0.36600
C1852       C  0.49169123  0.21716966  0.91700597    -0.05600
C1853       C  0.97930173  0.23816885  0.88956594    -0.32500
C1854       C  0.49713037  0.24050450  0.85710999     0.36500
H1855       H  0.57505572  0.21849954  0.89006316     0.16900
O1856       O  0.54500140  0.20262458  0.94694577    -0.60000
H1857       H  0.95414613  0.25001259  0.89136971     0.16900
O1858       O  0.97889316  0.25184957  0.82835109    -0.60100
H1859       H  0.96631653  0.23190542  0.81923643     0.43900
H1860       H  0.55167596  0.22349994  0.95982294     0.43900
C1861       C  0.52183923  0.28809615  0.72854112    -0.05200
C1862       C  0.52974903  0.30169044  0.76280700    -0.32600
C1863       C  0.53763482  0.28123598  0.79203878     0.36600
C1864       C  0.53603939  0.24587293  0.78871946    -0.05600
C1865       C  0.51769891  0.23377594  0.75900640    -0.32500
C1866       C  0.51222549  0.25327830  0.72871583     0.36500
H1867       H  0.53068534  0.32822906  0.76806664     0.16900
O1868       O  0.54887865  0.29602030  0.82309601    -0.60000
H1869       H  0.50784244  0.20843425  0.75811840     0.16900
O1870       O  0.49583412  0.23791158  0.70049148    -0.60100
H1871       H  0.50398095  0.21413315  0.69849811     0.43900
H1872       H  0.52796591  0.30586843  0.83462680     0.43900
C1873       C  0.63960467  0.27386683  0.67061947    -0.05200
C1874       C  0.61281088  0.25101283  0.66985673    -0.32600
C1875       C  0.57874584  0.26174760  0.67599721     0.36600
C1876       C  0.57038365  0.29617459  0.68489225    -0.05600
C1877       C  0.59803431  0.31905078  0.68155420    -0.32500
C1878       C  0.63202716  0.30816768  0.67623089     0.36500
H1879       H  0.61805650  0.22483272  0.66296798     0.16900
O1880       O  0.55380187  0.23868956  0.66907772    -0.60000
H1881       H  0.59397931  0.34584820  0.68011233     0.16900
O1882       O  0.65742567  0.33180470  0.67340542    -0.60100
H1883       H  0.66542156  0.33579825  0.69816561     0.43900
H1884       H  0.55161516  0.23784396  0.64272885     0.43900
C1885       C  0.90483029  0.29611354  0.57310891    -0.05200
C1886       C  0.88373743  0.27388541  0.55321536    -0.32600
C1887       C  0.85042642  0.26544878  0.56474079     0.36600
C1888       C  0.83637345  0.28042013  0.59585554    -0.05600
C1889       C  0.85511180  0.30618068  0.61267544    -0.32500
C1890       C  0.88820832  0.31494796  0.60082633     0.36500
H1891       H  0.89286065  0.26236065  0.52871297     0.16900
O1892       O  0.83218802  0.24205065  0.54561535    -0.60000
H1893       H  0.84414618  0.31961650  0.63544117     0.16900
O1894       O  0.90533588  0.33977833  0.61899820    -0.60100
H1895       H  0.89663202  0.36125895  0.60898400     0.43900
H1896       H  0.83928451  0.21989668  0.55535171     0.43900
C1897       C  0.52908832  0.12044555  0.77318676    -0.05200
C1898       C  0.51294620  0.13058980  0.80492648    -0.32600
C1899       C  0.51996765  0.16171243  0.82105035     0.36600
C1900       C  0.54375439  0.18434555  0.80505642    -0.05600
C1901       C  0.56098101  0.17276938  0.77368781    -0.32500
C1902       C  0.55364684  0.14155344  0.75781368     0.36500
H1903       H  0.99503466  0.11379034  0.81794399     0.16900
O1904       O  0.50310801  0.16889201  0.85234216    -0.60000
H1905       H  0.57956319  0.18874889  0.76061553     0.16900
O1906       O  0.57139949  0.13155519  0.72781612    -0.60100
H1907       H  0.59478052  0.12545260  0.73634146     0.43900
H1908       H  0.01551818  0.15561096  0.87073090     0.43900
C1909       C  0.52348782  0.41978523  0.71455382    -0.05200
C1910       C  0.49965149  0.40397889  0.69256806    -0.32600
C1911       C  0.50066560  0.36887515  0.68657540     0.36600
C1912       C  0.52797101  0.34797401  0.70044380    -0.05600
C1913       C  0.55153577  0.36514914  0.72287268    -0.32500
C1914       C  0.54957965  0.39987943  0.72985042     0.36500
H1915       H  0.47864927  0.41864850  0.68148259     0.16900
O1916       O  0.47306674  0.35590423  0.66895899    -0.60000
H1917       H  0.57211586  0.35139434  0.73581588     0.16900
O1918       O  0.57421996  0.41427829  0.75107406    -0.60100
H1919       H  0.56721745  0.40913160  0.77589406     0.43900
H1920       H  0.95455475  0.35424061  0.68721548     0.43900
C1921       C  0.84941916  0.03272186  0.80035415    -0.05200
C1922       C  0.87154381  0.00881862  0.81701313    -0.32600
C1923       C  0.90637321  0.00493614  0.80715603     0.36600
C1924       C  0.92026205  0.02454872  0.77977214    -0.05600
C1925       C  0.89921569  0.04880524  0.76369505    -0.32500
C1926       C  0.86479571  0.05357167  0.77390666     0.36500
H1927       H  0.86227963  0.99219464  0.83748096     0.16900
O1928       O  0.92628918  0.98120141  0.82390517    -0.60000
H1929       H  0.90951447  0.06449324  0.74275653     0.16900
O1930       O  0.84548575  0.07717805  0.75592655    -0.60100
H1931       H  0.85787749  0.09886099  0.75804463     0.43900
H1932       H  0.92307104  0.96006270  0.80998420     0.43900
C1933       C  0.79054741  0.46753663  0.90124911    -0.05200
C1934       C  0.78486987  0.45638709  0.86553435    -0.32600
C1935       C  0.79003386  0.47731566  0.83588431     0.36600
C1936       C  0.80113976  0.01087765  0.84068473    -0.05600
C1937       C  0.80768262  0.02160430  0.87604224    -0.32500
C1938       C  0.80084511  0.00156910  0.90562979     0.36500
H1939       H  0.77893283  0.43052897  0.85933254     0.16900
O1940       O  0.78636111  0.46356560  0.80241555    -0.60000
H1941       H  0.81857914  0.04617587  0.88122037     0.16900
O1942       O  0.80812380  0.01459620  0.93886191    -0.60100
H1943       H  0.79352435  0.03512451  0.94185938     0.43900
H1944       H  0.80973907  0.45550154  0.79541820     0.43900
C1945       C  0.74840901  0.16264534  0.66301999    -0.05200
C1946       C  0.73212492  0.15221516  0.69440459    -0.32600
C1947       C  0.72500059  0.11789405  0.70033914     0.36600
C1948       C  0.73448361  0.09259728  0.67469187    -0.05600
C1949       C  0.75462874  0.10344440  0.64534247    -0.32500
C1950       C  0.76046964  0.13774363  0.63888423     0.36500
H1951       H  0.72295034  0.17093949  0.71358435     0.16900
O1952       O  0.70814083  0.10958269  0.73115409    -0.60000
H1953       H  0.76533376  0.08547854  0.62630136     0.16900
O1954       O  0.77739529  0.14668319  0.60823641    -0.60100
H1955       H  0.80173517  0.14972559  0.61536320     0.43900
H1956       H  0.68513789  0.12064742  0.72997797     0.43900
C1957       C  0.74617572  0.04211059  0.71275089    -0.05200
C1958       C  0.78174383  0.03528174  0.70979399    -0.32600
C1959       C  0.80125194  0.02458566  0.73924002     0.36600
C1960       C  0.78789165  0.02815436  0.77461993    -0.05600
C1961       C  0.75202165  0.02925563  0.77668680    -0.32500
C1962       C  0.73157081  0.03885841  0.74787904     0.36500
H1963       H  0.79456777  0.03720249  0.68419329     0.16900
O1964       O  0.83252910  0.50918978  0.73222706    -0.60000
H1965       H  0.73918907  0.02333026  0.80113523     0.16900
O1966       O  0.69742447  0.04552197  0.75531396    -0.60100
H1967       H  0.69678367  0.06293064  0.77456445     0.43900
H1968       H  0.82770028  0.48468533  0.73221676     0.43900
C1969       C  0.61723860  0.03221204  0.70176519    -0.05200
C1970       C  0.64217504  0.00695776  0.70406022    -0.32600
C1971       C  0.67622963  0.01345067  0.69454370     0.36600
C1972       C  0.68656774  0.04694159  0.68593522    -0.05600
C1973       C  0.66045065  0.07137286  0.68119242    -0.32500
C1974       C  0.62595223  0.06361009  0.68746637     0.36500
H1975       H  0.63524965  0.98208611  0.71323295     0.16900
O1976       O  0.69977539  0.98736606  0.69559474    -0.60000
H1977       H  0.66630778  0.09623733  0.67150047     0.16900
O1978       O  0.60097327  0.08715350  0.68024096    -0.60100
H1979       H  0.59545367  0.08373997  0.65463855     0.43900
H1980       H  0.70082262  0.98017920  0.72085094     0.43900
C1981       C  0.76902553  0.44789336  0.96516605    -0.05200
C1982       C  0.77059273  0.42418402  0.99303506    -0.32600
C1983       C  0.75224026  0.42826565  0.02492946     0.36600
C1984       C  0.72911301  0.45594515  0.02972066    -0.05600
C1985       C  0.73049004  0.48152729  0.00379174    -0.32500
C1986       C  0.74701682  0.47624643  0.97066056     0.36500
H1987       H  0.78812869  0.40284723  0.99100855     0.16900
O1988       O  0.75861003  0.40550238  0.55148412    -0.60000
H1989       H  0.71459264  0.50394957  0.00717068     0.16900
O1990       O  0.73946406  0.49816530  0.94381175    -0.60100
H1991       H  0.72030612  0.98719552  0.93031971     0.43900
H1992       H  0.78308955  0.40843466  0.55819386     0.43900
C1993       C  0.73047857  0.03431580  0.64304540    -0.05200
C1994       C  0.74939543  0.00380158  0.63958450    -0.32600
C1995       C  0.74506481  0.98219513  0.60990350     0.36600
C1996       C  0.71732645  0.98759007  0.58600694    -0.05600
C1997       C  0.70410359  0.02064901  0.58517204    -0.32500
C1998       C  0.71045236  0.04379522  0.61279600     0.36500
H1999       H  0.76566033  0.99460267  0.66056825     0.16900
O2000       O  0.76554237  0.45396449  0.60708941    -0.60000
H2001       H  0.68713143  0.02843730  0.56392332     0.16900
O2002       O  0.69508360  0.07511815  0.61107021    -0.60100
H2003       H  0.67001055  0.07127064  0.60840795     0.43900
H2004       H  0.78698745  0.46155260  0.59529037     0.43900
C2005       C  0.71043494  0.36015788  0.60850527    -0.05200
C2006       C  0.69603586  0.36386796  0.57451640    -0.32600
C2007       C  0.68881122  0.39564702  0.56083615     0.36600
C2008       C  0.69743544  0.42505339  0.58056476    -0.05600
C2009       C  0.70291561  0.42063668  0.61757997    -0.32500
C2010       C  0.71121088  0.38867687  0.63119258     0.36500
H2011       H  0.69214221  0.34217828  0.55723469     0.16900
O2012       O  0.67783350  0.39736107  0.52632943    -0.60000
H2013       H  0.70297536  0.44185425  0.63586295     0.16900
O2014       O  0.72025337  0.38581315  0.66635904    -0.60100
H2015       H  0.74487975  0.39216676  0.66730821     0.43900
H2016       H  0.65273767  0.39299310  0.52748856     0.43900
C2017       C  0.86309586  0.22362659  0.90305638    -0.05200
C2018       C  0.86825563  0.22416320  0.93982814    -0.32600
C2019       C  0.89895072  0.21287840  0.95493805     0.36600
C2020       C  0.92801943  0.20335196  0.93329606    -0.05600
C2021       C  0.92015226  0.19826788  0.89644434    -0.32500
C2022       C  0.88923287  0.20982279  0.88125203     0.36500
H2023       H  0.84749566  0.23195476  0.95767012     0.16900
O2024       O  0.89754385  0.20756335  0.99070777    -0.60000
H2025       H  0.93946177  0.18873624  0.87794905     0.16900
O2026       O  0.88496062  0.20720889  0.84505001    -0.60100
H2027       H  0.89683823  0.22702726  0.83504988     0.43900
H2028       H  0.88745234  0.18481796  0.99336512     0.43900
C2029       C  0.77938090  0.13975680  0.84003201    -0.05200
C2030       C  0.75634128  0.11373277  0.84554602    -0.32600
C2031       C  0.76584466  0.08011418  0.83794464     0.36600
C2032       C  0.79923149  0.07203090  0.82315217    -0.05600
C2033       C  0.82343059  0.09845174  0.82460700    -0.32500
C2034       C  0.81339823  0.13187329  0.83042917     0.36500
H2035       H  0.73105032  0.11938172  0.85661663     0.16900
O2036       O  0.74463481  0.05542730  0.85071810    -0.60000
H2037       H  0.85070161  0.09403797  0.82186784     0.16900
O2038       O  0.83776899  0.15657500  0.82893558    -0.60100
H2039       H  0.83948922  0.16251059  0.80334806     0.43900
H2040       H  0.72084120  0.06134509  0.84327847     0.43900
C2041       C  0.77086820  0.33756784  0.89979738    -0.05200
C2042       C  0.80362332  0.34490950  0.91289782    -0.32600
C2043       C  0.81223251  0.37755717  0.92424493     0.36600
C2044       C  0.78815820  0.40476628  0.92085368    -0.05600
C2045       C  0.75455344  0.39630653  0.90914644    -0.32500
C2046       C  0.74600194  0.36335257  0.89852892     0.36500
H2047       H  0.82270757  0.32487019  0.91495171     0.16900
O2048       O  0.84375892  0.38159491  0.93985787    -0.60000
H2049       H  0.73482178  0.41577811  0.90784459     0.16900
O2050       O  0.71347097  0.35677514  0.88642205    -0.60100
H2051       H  0.70000501  0.35089400  0.90801025     0.43900
H2052       H  0.84058741  0.37489929  0.96507337     0.43900
C2053       C  0.59117528  0.22486449  0.82088891    -0.05200
C2054       C  0.61047766  0.25041595  0.80355072    -0.32600
C2055       C  0.64577177  0.25523041  0.81026183     0.36600
C2056       C  0.66325494  0.23385657  0.83372766    -0.05600
C2057       C  0.64578275  0.20601470  0.84726095    -0.32500
C2058       C  0.61099432  0.20056008  0.83986687     0.36500
H2059       H  0.59907600  0.26718328  0.78451103     0.16900
O2060       O  0.66261259  0.28132501  0.79426500    -0.60000
H2061       H  0.65931260  0.18801706  0.86380654     0.16900
O2062       O  0.59621375  0.17194899  0.85313118    -0.60100
H2063       H  0.60437083  0.15329366  0.83727922     0.43900
H2064       H  0.65928809  0.30092141  0.81063617     0.43900
C2065       C  0.94981915  0.33735151  0.55417591    -0.05200
C2066       C  0.96787127  0.36017403  0.57631123    -0.32600
C2067       C  0.98055403  0.39035885  0.56367562     0.36600
C2068       C  0.97347562  0.40027207  0.52873679    -0.05600
C2069       C  0.95065520  0.38084918  0.50817777    -0.32500
C2070       C  0.93789016  0.35001301  0.52113528     0.36500
H2071       H  0.97331573  0.35462661  0.60369795     0.16900
O2072       O  0.99990403  0.41014677  0.58600762    -0.60000
H2073       H  0.94232303  0.38980221  0.98237588     0.16900
O2074       O  0.91502552  0.33180898  0.50098197    -0.60100
H2075       H  0.92666189  0.32694759  0.97788557     0.43900
H2076       H  0.02397984  0.40210042  0.58259263     0.43900
C2077       C  0.83216921  0.44862508  0.94664838    -0.05200
C2078       C  0.83876155  0.46175562  0.98143676    -0.32600
C2079       C  0.87024707  0.47588045  0.99053153     0.36600
C2080       C  0.89653211  0.47814668  0.96490074    -0.05600
C2081       C  0.89126748  0.46371133  0.93094006    -0.32500
C2082       C  0.86010613  0.44846999  0.92199614     0.36500
H2083       H  0.81929005  0.46370408  0.00193109     0.16900
O2084       O  0.87449746  0.48816690  0.52454542    -0.60000
H2085       H  0.91150537  0.46399504  0.91092380     0.16900
O2086       O  0.85620400  0.43583052  0.88800554    -0.60100
H2087       H  0.87182808  0.41592821  0.88621871     0.43900
H2088       H  0.88166079  0.46839178  0.53882229     0.43900
C2089       C  0.66510203  0.46893926  0.54807392    -0.05200
C2090       C  0.64031533  0.47892473  0.57420214    -0.32600
C2091       C  0.60664211  0.48904611  0.56513833     0.36600
C2092       C  0.59605575  0.48829097  0.52924608    -0.05600
C2093       C  0.62000316  0.47767626  0.50327764    -0.32500
C2094       C  0.65321953  0.46672512  0.51206838     0.36500
H2095       H  0.64727141  0.97941030  0.60210232     0.16900
O2096       O  0.58403287  0.99861886  0.59169156    -0.60000
H2097       H  0.61249516  0.47599647  0.97552050     0.16900
O2098       O  0.67266789  0.45233644  0.98509900    -0.60100
H2099       H  0.65886854  0.43378846  0.97465356     0.43900
H2100       H  0.58899918  0.02271082  0.59660845     0.43900
C2101       C  0.97926654  0.16470220  0.95310617    -0.05200
C2102       C  0.96889700  0.13876311  0.92917399    -0.32600
C2103       C  0.97734061  0.10468369  0.93435424     0.36600
C2104       C  0.99625742  0.09500722  0.96429637    -0.05600
C2105       C  0.00881364  0.12003393  0.98704499    -0.32500
C2106       C  0.00220873  0.15440228  0.98098001     0.36500
H2107       H  0.95337572  0.14396999  0.90633359     0.16900
O2108       O  0.96445257  0.08078482  0.91144978    -0.60000
H2109       H  0.52389135  0.11288373  0.51005645     0.16900
O2110       O  0.51728709  0.17734602  0.50367105    -0.60100
H2111       H  0.54208764  0.17121616  0.50512046     0.43900
H2112       H  0.98128775  0.07930907  0.89148036     0.40300
O2113       O  0.98149030  0.95813799  0.03888455    -0.72700
O2114       O  0.99034276  0.55247946  0.00744762    -0.73700
O2115       O  0.93745779  0.00223483  0.00555882    -0.62300
O2116       O  0.53631843  0.00470338  0.03963989    -0.70700
O2117       O  0.55149765  0.98640181  0.48576644    -0.70200
O2118       O  0.95534244  0.98573485  0.45178377    -0.61500
O2119       O  0.00681525  0.53573064  0.45321903    -0.74000
O2120       O  0.99600437  0.93862943  0.48504939    -0.72800
Cu2121     Cu  0.98601207  0.00540861  0.02461483     1.04600
Cu2122     Cu  0.00345166  0.98631188  0.46706296     1.04300
C2123       C  0.98474455  0.93372359  0.01677018     0.93500
C2124       C  0.99857079  0.55935094  0.47538499     0.92700
C2125       C  0.93110362  0.99035907  0.47429936     0.84800
C2126       C  0.55960239  0.99404516  0.01782535     0.91100
O2127       O  0.80281618  0.72786414  0.41102170    -0.72700
O2128       O  0.70636075  0.73282338  0.37785014    -0.73700
O2129       O  0.75781531  0.68229323  0.37954501    -0.62300
O2130       O  0.75347724  0.78051151  0.40905258    -0.70700
O2131       O  0.77242344  0.79441345  0.35521564    -0.70200
O2132       O  0.77613998  0.69730413  0.32575546    -0.61500
O2133       O  0.72311287  0.74782913  0.32365796    -0.74000
O2134       O  0.82289881  0.74100134  0.35750711    -0.72800
Cu2135     Cu  0.75419108  0.73069715  0.39609837     1.04600
Cu2136     Cu  0.77395895  0.74601180  0.33853680     1.04300
C2137       C  0.82812687  0.73162342  0.38967279     0.93500
C2138       C  0.69923209  0.73915906  0.34543656     0.92700
C2139       C  0.76969091  0.67460728  0.34858732     0.84800
C2140       C  0.76420316  0.80268689  0.38718778     0.91100
C2141       C  0.70242164  0.95934898  0.06105905    -0.02200
C2142       C  0.72526303  0.55437467  0.17921034    -0.02200
C2143       C  0.79455345  0.94204966  0.43320262    -0.02200
C2144       C  0.80979277  0.53526146  0.30929152    -0.02200
O2145       O  0.55719596  0.53111271  0.19462966    -0.72700
O2146       O  0.96249375  0.52735878  0.23394743    -0.73700
O2147       O  0.51386975  0.57811298  0.22924846    -0.62300
O2148       O  0.50856777  0.97812563  0.20142827    -0.70700
O2149       O  0.52920594  0.96586532  0.25479785    -0.70200
O2150       O  0.53198229  0.56214682  0.28263874    -0.61500
O2151       O  0.98093554  0.51205057  0.28732542    -0.74000
O2152       O  0.57808079  0.51741414  0.24771794    -0.72800
Cu2153     Cu  0.50956151  0.52893775  0.21288498     1.04600
Cu2154     Cu  0.53065403  0.51370095  0.26986471     1.04300
C2155       C  0.58258945  0.52614440  0.21521191     0.93500
C2156       C  0.95631027  0.52051612  0.26652510     0.92700
C2157       C  0.52460191  0.58534371  0.26070533     0.84800
C2158       C  0.51991416  0.95637529  0.22380443     0.91100
O2159       O  0.79540396  0.77647798  0.14356847    -0.72700
O2160       O  0.69928234  0.77071950  0.18174681    -0.73700
O2161       O  0.75464055  0.72250168  0.17609624    -0.62300
O2162       O  0.73695095  0.82081298  0.14935050    -0.70700
O2163       O  0.71964434  0.80214408  0.09658229    -0.70200
O2164       O  0.73855347  0.70677700  0.12179542    -0.61500
O2165       O  0.68113743  0.75265620  0.12879355    -0.74000
O2166       O  0.77847076  0.75970227  0.08995668    -0.72800
Cu2167     Cu  0.74764524  0.77278910  0.16461395     1.04600
Cu2168     Cu  0.72916066  0.75440339  0.10755337     1.04300
C2169       C  0.80194815  0.77129070  0.11045835     0.93500
C2170       C  0.67488794  0.76391157  0.16036162     0.92700
C2171       C  0.74795358  0.69910676  0.15324814     0.84800
C2172       C  0.72319915  0.82630224  0.11893541     0.91100
C2173       C  0.55060115  0.72144400  0.31765130    -0.02200
C2174       C  0.96720136  0.70230494  0.44675678    -0.02200
C2175       C  0.53204904  0.80819618  0.19359501    -0.02200
C2176       C  0.94451624  0.79990794  0.06551446    -0.02200
C2177       C  0.51034369  0.79885536  0.16004571    -0.05200
C2178       C  0.97552124  0.78910677  0.16290732    -0.32600
C2179       C  0.95518066  0.78294735  0.13287281     0.36600
C2180       C  0.96733226  0.79191130  0.09863188    -0.05600
C2181       C  0.00296297  0.79754019  0.09523836    -0.32500
C2182       C  0.02350094  0.80340192  0.12491173     0.36500
H2183       H  0.46321938  0.78752107  0.18882068     0.16900
O2184       O  0.92383909  0.76815886  0.13788778    -0.60000
H2185       H  0.01400596  0.80273446  0.06934203     0.16900
O2186       O  0.55557647  0.81630716  0.11875417    -0.60100
H2187       H  0.05228820  0.84110164  0.11871271     0.43900
H2188       H  0.92808199  0.74368206  0.13404086     0.43900
C2189       C  0.97000863  0.72530120  0.98106766    -0.05200
C2190       C  0.98189915  0.75877960  0.97837520    -0.32600
C2191       C  0.97763985  0.78242690  0.00607993     0.36600
C2192       C  0.95793173  0.77416412  0.03668455    -0.05600
C2193       C  0.95275830  0.73958914  0.04252598    -0.32500
C2194       C  0.95886208  0.71530828  0.01569981     0.36500
H2195       H  0.99448769  0.76770766  0.45461274     0.16900
O2196       O  0.99560119  0.81207222  0.00419300    -0.60000
H2197       H  0.94139391  0.73150788  0.06743703     0.16900
O2198       O  0.94964586  0.68255124  0.02244440    -0.60100
H2199       H  0.96211648  0.67579613  0.04433517     0.43900
H2200       H  0.99071960  0.82191887  0.98050100     0.43900
C2201       C  0.53211763  0.72940460  0.35432184    -0.05200
C2202       C  0.54765381  0.72085845  0.38709122    -0.32600
C2203       C  0.52792845  0.71331316  0.41734050     0.36600
C2204       C  0.49163483  0.71709741  0.41697795    -0.05600
C2205       C  0.97922438  0.73804025  0.38950493    -0.32500
C2206       C  0.49703324  0.74032736  0.35703646     0.36500
H2207       H  0.57500110  0.71848059  0.39002039     0.16900
O2208       O  0.54495421  0.70259682  0.44692240    -0.60000
H2209       H  0.95404990  0.74984594  0.39129976     0.16900
O2210       O  0.97875335  0.75156299  0.32824896    -0.60100
H2211       H  0.96621953  0.73156589  0.31919750     0.43900
H2212       H  0.55160742  0.72347595  0.45980482     0.43900
C2213       C  0.52186202  0.78817124  0.22857850    -0.05200
C2214       C  0.52987635  0.80171640  0.26284158    -0.32600
C2215       C  0.53767113  0.78121999  0.29206927     0.36600
C2216       C  0.53599496  0.74586585  0.28871536    -0.05600
C2217       C  0.51758278  0.73384211  0.25902153    -0.32500
C2218       C  0.51212545  0.75338184  0.22875338     0.36500
H2219       H  0.53096218  0.82824469  0.26810672     0.16900
O2220       O  0.54894881  0.79594929  0.32314037    -0.60000
H2221       H  0.50766314  0.70852370  0.25813253     0.16900
O2222       O  0.49570891  0.73805388  0.20052097    -0.60100
H2223       H  0.50382583  0.71426941  0.19850179     0.43900
H2224       H  0.52802975  0.80569604  0.33475696     0.43900
C2225       C  0.63965990  0.77406920  0.17058826    -0.05200
C2226       C  0.61291115  0.75116281  0.16999277    -0.32600
C2227       C  0.57884056  0.76184980  0.17618869     0.36600
C2228       C  0.57042283  0.79629283  0.18495597    -0.05600
C2229       C  0.59802277  0.81921093  0.18147904    -0.32500
C2230       C  0.63202745  0.80837375  0.17609330     0.36500
H2231       H  0.61819578  0.72496481  0.16321639     0.16900
O2232       O  0.55393450  0.73869917  0.16948501    -0.60000
H2233       H  0.59390505  0.84599776  0.17996897     0.16900
O2234       O  0.65737828  0.83204211  0.17311992    -0.60100
H2235       H  0.66502005  0.83655256  0.19790873     0.43900
H2236       H  0.55163340  0.73775213  0.14315018     0.43900
C2237       C  0.90491024  0.79620416  0.07307109    -0.05200
C2238       C  0.88383880  0.77386684  0.05329376    -0.32600
C2239       C  0.85057729  0.76537758  0.06492091     0.36600
C2240       C  0.83650458  0.78048090  0.09595132    -0.05600
C2241       C  0.85518972  0.80637375  0.11261320    -0.32500
C2242       C  0.88827145  0.81514111  0.10070228     0.36500
H2243       H  0.89294338  0.76225221  0.02882824     0.16900
O2244       O  0.83239887  0.74179332  0.04598818    -0.60000
H2245       H  0.84419844  0.81990218  0.13530531     0.16900
O2246       O  0.90537159  0.84007961  0.11873645    -0.60100
H2247       H  0.89671277  0.86149574  0.10853225     0.43900
H2248       H  0.84064676  0.71966227  0.05482354     0.43900
C2249       C  0.52903311  0.62039309  0.27304911    -0.05200
C2250       C  0.51300265  0.63046741  0.30487484    -0.32600
C2251       C  0.52002188  0.66158502  0.32101014     0.36600
C2252       C  0.54368405  0.68429320  0.30494004    -0.05600
C2253       C  0.56081139  0.67278872  0.27348460    -0.32500
C2254       C  0.55346577  0.64158200  0.25758591     0.36500
H2255       H  0.99523836  0.61360303  0.31796531     0.16900
O2256       O  0.50332794  0.66866195  0.35242110    -0.60000
H2257       H  0.57931992  0.68881895  0.26037005     0.16900
O2258       O  0.57110547  0.63166140  0.22748886    -0.60100
H2259       H  0.59453449  0.62559381  0.23589806     0.43900
H2260       H  0.01597136  0.65542545  0.37070144     0.43900
C2261       C  0.52338225  0.91987373  0.21456493    -0.05200
C2262       C  0.49955301  0.90404280  0.19259395    -0.32600
C2263       C  0.50061657  0.86894050  0.18657555     0.36600
C2264       C  0.52794014  0.84805739  0.20045145    -0.05600
C2265       C  0.55151255  0.86526815  0.22284129    -0.32500
C2266       C  0.54953038  0.90000120  0.22980573     0.36500
H2267       H  0.47853010  0.91869270  0.18152054     0.16900
O2268       O  0.47306564  0.85596350  0.16888644    -0.60000
H2269       H  0.57214024  0.85154739  0.23574292     0.16900
O2270       O  0.57421114  0.91444233  0.25094621    -0.60100
H2271       H  0.56731253  0.90926086  0.27578832     0.43900
H2272       H  0.95450608  0.85438144  0.18703035     0.43900
C2273       C  0.84951605  0.53268663  0.30022646    -0.05200
C2274       C  0.87160518  0.50870391  0.31681431    -0.32600
C2275       C  0.90642726  0.50479171  0.30695014     0.36600
C2276       C  0.92035240  0.52446517  0.27963901    -0.05600
C2277       C  0.89934731  0.54879398  0.26362769    -0.32500
C2278       C  0.86492729  0.55357850  0.27383669     0.36500
H2279       H  0.86231131  0.49202122  0.33721272     0.16900
O2280       O  0.92629295  0.48095589  0.32360474    -0.60000
H2281       H  0.90967684  0.56451617  0.24273407     0.16900
O2282       O  0.84564388  0.57722068  0.25587924    -0.60100
H2283       H  0.85806866  0.59889178  0.25800679     0.43900
H2284       H  0.92319606  0.45992179  0.30947016     0.43900
C2285       C  0.79047236  0.96744347  0.40128301    -0.05200
C2286       C  0.78487278  0.95632216  0.36554801    -0.32600
C2287       C  0.79003578  0.97730080  0.33593325     0.36600
C2288       C  0.80124133  0.51084459  0.34054901    -0.05600
C2289       C  0.80785536  0.52159617  0.37588555    -0.32500
C2290       C  0.80098913  0.50161984  0.40551006     0.36500
H2291       H  0.77901231  0.93045271  0.35931028     0.16900
O2292       O  0.78646578  0.96358129  0.30243868    -0.60000
H2293       H  0.81881754  0.54614864  0.38101363     0.16900
O2294       O  0.80833554  0.51466748  0.43871715    -0.60100
H2295       H  0.79378840  0.53523127  0.44170375     0.43900
H2296       H  0.80982075  0.95532445  0.29560991     0.43900
C2297       C  0.74845846  0.66276476  0.16308027    -0.05200
C2298       C  0.73218691  0.65229445  0.19445632    -0.32600
C2299       C  0.72506168  0.61796355  0.20033947     0.36600
C2300       C  0.73452433  0.59270061  0.17464653    -0.05600
C2301       C  0.75464333  0.60358611  0.14529660    -0.32500
C2302       C  0.76049615  0.63789231  0.13889621     0.36500
H2303       H  0.72302617  0.67099397  0.21367016     0.16900
O2304       O  0.70823063  0.60960702  0.23115563    -0.60000
H2305       H  0.76532950  0.58564596  0.12621750     0.16900
O2306       O  0.77740678  0.64686923  0.10825203    -0.60100
H2307       H  0.80172665  0.65003950  0.11540063     0.43900
H2308       H  0.68520520  0.62063148  0.22998966     0.43900
C2309       C  0.74628378  0.54219156  0.21263832    -0.05200
C2310       C  0.78186207  0.53543074  0.20964711    -0.32600
C2311       C  0.80139417  0.52467124  0.23905142     0.36600
C2312       C  0.78801878  0.52807284  0.27443987    -0.05600
C2313       C  0.75215017  0.52909325  0.27650450    -0.32500
C2314       C  0.73169535  0.53882304  0.24775562     0.36500
H2315       H  0.79466937  0.53743513  0.18404505     0.16900
O2316       O  0.83234149  0.00907222  0.23241466    -0.60000
H2317       H  0.73932567  0.52304595  0.30092337     0.16900
O2318       O  0.69756468  0.54550688  0.25524337    -0.60100
H2319       H  0.69696807  0.56288979  0.27452443     0.43900
H2320       H  0.82761701  0.98457270  0.23321816     0.43900
C2321       C  0.61732694  0.53219892  0.20170430    -0.05200
C2322       C  0.64229250  0.50697310  0.20401353    -0.32600
C2323       C  0.67633935  0.51349568  0.19448324     0.36600
C2324       C  0.68664616  0.54699869  0.18587868    -0.05600
C2325       C  0.66050440  0.57140489  0.18113885    -0.32500
C2326       C  0.62601083  0.56360069  0.18739225     0.36500
H2327       H  0.63539271  0.48209616  0.21319108     0.16900
O2328       O  0.69990986  0.48743034  0.19551994    -0.60000
H2329       H  0.66634060  0.59627741  0.17145459     0.16900
O2330       O  0.60100537  0.58710377  0.18012099    -0.60100
H2331       H  0.59543743  0.58358941  0.15454636     0.43900
H2332       H  0.70092564  0.48019292  0.22076077     0.43900
C2333       C  0.76894177  0.94775841  0.46517824    -0.05200
C2334       C  0.77054798  0.92408550  0.49307921    -0.32600
C2335       C  0.75219599  0.92818667  0.52497840     0.36600
C2336       C  0.72905251  0.95586026  0.52974773    -0.05600
C2337       C  0.73040177  0.98140982  0.50378504    -0.32500
C2338       C  0.74689407  0.97608771  0.47064369     0.36500
H2339       H  0.78810161  0.90276233  0.49106778     0.16900
O2340       O  0.75857298  0.90551683  0.05159273    -0.60000
H2341       H  0.71449003  0.00382521  0.50714122     0.16900
O2342       O  0.73925851  0.99793434  0.44375342    -0.60100
H2343       H  0.72053284  0.48744020  0.43028654     0.43900
H2344       H  0.78306765  0.90842375  0.05825632     0.43900
C2345       C  0.73055458  0.53442860  0.14296352    -0.05200
C2346       C  0.74949927  0.50393047  0.13949145    -0.32600
C2347       C  0.74515306  0.48230811  0.10982877     0.36600
C2348       C  0.71738424  0.48767257  0.08596966    -0.05600
C2349       C  0.70413335  0.52072383  0.08513099    -0.32500
C2350       C  0.71049780  0.54388865  0.11273200     0.36500
H2351       H  0.76579809  0.49475163  0.16045639     0.16900
O2352       O  0.76543131  0.95391406  0.10719490    -0.60000
H2353       H  0.68713388  0.52849253  0.06389750     0.16900
O2354       O  0.69511309  0.57520519  0.11100754    -0.60100
H2355       H  0.67004372  0.57134812  0.10835166     0.43900
H2356       H  0.78686971  0.96147963  0.09536667     0.43900
C2357       C  0.71049133  0.86022398  0.10853561    -0.05200
C2358       C  0.69606148  0.86388985  0.07455495    -0.32600
C2359       C  0.68876535  0.89564821  0.06087066     0.36600
C2360       C  0.69733465  0.92506912  0.08059794    -0.05600
C2361       C  0.70278388  0.92067181  0.11761933    -0.32500
C2362       C  0.71118765  0.88874043  0.13122726     0.36500
H2363       H  0.69221469  0.84218929  0.05727605     0.16900
O2364       O  0.67781001  0.89733304  0.02635524    -0.60000
H2365       H  0.70277864  0.94189333  0.13589951     0.16900
O2366       O  0.72027362  0.88590487  0.16638468    -0.60100
H2367       H  0.74486118  0.89239043  0.16731939     0.43900
H2368       H  0.65273516  0.89286382  0.02748595     0.43900
C2369       C  0.86302996  0.72330379  0.40308953    -0.05200
C2370       C  0.86818262  0.72376897  0.43986507    -0.32600
C2371       C  0.89891162  0.71254158  0.45495460     0.36600
C2372       C  0.92800935  0.70314095  0.43329525    -0.05600
C2373       C  0.92013891  0.69806099  0.39644183    -0.32500
C2374       C  0.88919335  0.70957406  0.38126723     0.36500
H2375       H  0.84740598  0.73148086  0.45772283     0.16900
O2376       O  0.89752226  0.70715934  0.49071283    -0.60000
H2377       H  0.93945780  0.68859515  0.37792246     0.16900
O2378       O  0.88493273  0.70700870  0.34506073    -0.60100
H2379       H  0.89660173  0.72697058  0.33511663     0.43900
H2380       H  0.88753831  0.68435808  0.49331932     0.43900
C2381       C  0.77926382  0.63960758  0.34000925    -0.05200
C2382       C  0.75626423  0.61354269  0.34546680    -0.32600
C2383       C  0.76581755  0.57995460  0.33777717     0.36600
C2384       C  0.79922906  0.57194594  0.32298670    -0.05600
C2385       C  0.82337650  0.59840256  0.32448068    -0.32500
C2386       C  0.81328403  0.63179683  0.33035552     0.36500
H2387       H  0.73096375  0.61913414  0.35654498     0.16900
O2388       O  0.74462351  0.55521495  0.35046092    -0.60000
H2389       H  0.85065426  0.59403787  0.32174583     0.16900
O2390       O  0.83760143  0.65654826  0.32885992    -0.60100
H2391       H  0.83947149  0.66233399  0.30323742     0.43900
H2392       H  0.72083539  0.56110794  0.34297203     0.43900
C2393       C  0.77090698  0.83741822  0.39978364    -0.05200
C2394       C  0.80362994  0.84477776  0.41295927    -0.32600
C2395       C  0.81219741  0.87743448  0.42432461     0.36600
C2396       C  0.78812222  0.90463900  0.42085876    -0.05600
C2397       C  0.75455410  0.89616244  0.40906310    -0.32500
C2398       C  0.74604275  0.86319996  0.39843072     0.36500
H2399       H  0.82271266  0.82474398  0.41507685     0.16900
O2400       O  0.84367373  0.88148397  0.44004491    -0.60000
H2401       H  0.73481942  0.91562621  0.40770472     0.16900
O2402       O  0.71354707  0.85660642  0.38623300    -0.60100
H2403       H  0.70001440  0.85078207  0.40778841     0.43900
H2404       H  0.84045118  0.87470068  0.46522831     0.43900
C2405       C  0.59111987  0.72476595  0.32084370    -0.05200
C2406       C  0.61044420  0.75031382  0.30352459    -0.32600
C2407       C  0.64572630  0.75513545  0.31028549     0.36600
C2408       C  0.66318572  0.73376220  0.33377118    -0.05600
C2409       C  0.64569886  0.70591545  0.34727858    -0.32500
C2410       C  0.61091741  0.70045803  0.33983702     0.36500
H2411       H  0.59906863  0.76707201  0.28445964     0.16900
O2412       O  0.66257550  0.78123756  0.29431259    -0.60000
H2413       H  0.65921214  0.68791492  0.36383463     0.16900
O2414       O  0.59611868  0.67184726  0.35307680    -0.60100
H2415       H  0.60424696  0.65320150  0.33719006     0.43900
H2416       H  0.65971949  0.80068508  0.31097253     0.43900
C2417       C  0.94998117  0.83737318  0.05413944    -0.05200
C2418       C  0.96819088  0.86014508  0.07619688    -0.32600
C2419       C  0.98088871  0.89030110  0.06350861     0.36600
C2420       C  0.97364131  0.90025384  0.02862535    -0.05600
C2421       C  0.95071073  0.88088092  0.00815527    -0.32500
C2422       C  0.93796428  0.85005547  0.02114239     0.36500
H2423       H  0.97373286  0.85459477  0.10356101     0.16900
O2424       O  0.00040640  0.91003223  0.08573777    -0.60000
H2425       H  0.94231795  0.88981154  0.48237215     0.16900
O2426       O  0.91502157  0.83188163  0.00105636    -0.60100
H2427       H  0.92667004  0.82693689  0.47791452     0.43900
H2428       H  0.02446934  0.90206378  0.08202306     0.43900
C2429       C  0.83208663  0.94852660  0.44664762    -0.05200
C2430       C  0.83866959  0.96175018  0.48139665    -0.32600
C2431       C  0.87015190  0.97590947  0.49044856     0.36600
C2432       C  0.89646091  0.97805404  0.46482726    -0.05600
C2433       C  0.89119908  0.96352837  0.43090977    -0.32500
C2434       C  0.86002281  0.94830610  0.42199472     0.36500
H2435       H  0.81918035  0.96377370  0.50186882     0.16900
O2436       O  0.87434838  0.98842198  0.02443544    -0.60000
H2437       H  0.91144552  0.96373873  0.41090014     0.16900
O2438       O  0.85611017  0.93561176  0.38802787    -0.60100
H2439       H  0.87169539  0.91567897  0.38628883     0.43900
H2440       H  0.88110708  0.96867066  0.03894245     0.43900
C2441       C  0.66503829  0.96895657  0.04806962    -0.05200
C2442       C  0.64024056  0.97900659  0.07416129    -0.32600
C2443       C  0.60658153  0.98913562  0.06505145     0.36600
C2444       C  0.59601968  0.98833920  0.02914918    -0.05600
C2445       C  0.61997322  0.97765457  0.00322121    -0.32500
C2446       C  0.65317012  0.96668038  0.01206038     0.36500
H2447       H  0.64736395  0.47933796  0.10214715     0.16900
O2448       O  0.58407321  0.49846652  0.09181597    -0.60000
H2449       H  0.61246771  0.97586559  0.47545791     0.16900
O2450       O  0.67260497  0.95214203  0.48512535    -0.60100
H2451       H  0.65876936  0.93363232  0.47467637     0.43900
H2452       H  0.58961500  0.52229453  0.09746877     0.43900
C2453       C  0.97937216  0.66467022  0.45313481    -0.05200
C2454       C  0.96926244  0.63873252  0.42908336    -0.32600
C2455       C  0.97777003  0.60467331  0.43428803     0.36600
C2456       C  0.99644570  0.59501650  0.46440139    -0.05600
C2457       C  0.00881246  0.62006399  0.48724476    -0.32500
C2458       C  0.00221466  0.65442051  0.48111314     0.36500
H2459       H  0.95391880  0.64393612  0.40611304     0.16900
O2460       O  0.96518628  0.58077102  0.41120251    -0.60000
H2461       H  0.52375560  0.61292203  0.01036566     0.16900
O2462       O  0.51725395  0.67738217  0.00380042    -0.60100
H2463       H  0.54206839  0.67129926  0.00522133     0.43900
H2464       H  0.98239696  0.57914167  0.39158672     0.40300
O2465       O  0.98147975  0.95814442  0.53886987    -0.72700
O2466       O  0.99033600  0.55246846  0.50743026    -0.73700
O2467       O  0.93746352  0.00224455  0.50552064    -0.62300
O2468       O  0.53632737  0.00471227  0.53964420    -0.70700
O2469       O  0.55150194  0.98639564  0.98576507    -0.70200
O2470       O  0.95533651  0.98574958  0.95181409    -0.61500
O2471       O  0.00682090  0.53574092  0.95323652    -0.74000
O2472       O  0.99600674  0.93863876  0.98505485    -0.72800
Cu2473     Cu  0.98601287  0.00541374  0.52458005     1.04600
Cu2474     Cu  0.00344782  0.98632489  0.96709002     1.04300
C2475       C  0.98473553  0.93372232  0.51676441     0.93500
C2476       C  0.99857036  0.55936130  0.97539988     0.92700
C2477       C  0.93109783  0.99035894  0.97433287     0.84800
C2478       C  0.55960503  0.99404688  0.51782548     0.91100
O2479       O  0.80276669  0.72786925  0.91102795    -0.72700
O2480       O  0.70631976  0.73284951  0.87781860    -0.73700
O2481       O  0.75776532  0.68230629  0.87953464    -0.62300
O2482       O  0.75343417  0.78052873  0.90903917    -0.70700
O2483       O  0.77239591  0.79442670  0.85520715    -0.70200
O2484       O  0.77610457  0.69731374  0.82574957    -0.61500
O2485       O  0.72308690  0.74785098  0.82363020    -0.74000
O2486       O  0.82285920  0.74100378  0.85751739    -0.72800
Cu2487     Cu  0.75414405  0.73071297  0.89608580     1.04600
Cu2488     Cu  0.77392738  0.74602357  0.83852939     1.04300
C2489       C  0.82808186  0.73162181  0.88968283     0.93500
C2490       C  0.69919953  0.73918520  0.84540261     0.92700
C2491       C  0.76965019  0.67461783  0.84858120     0.84800
C2492       C  0.76416862  0.80270252  0.88717690     0.91100
C2493       C  0.70241475  0.95930176  0.56105629    -0.02200
C2494       C  0.72529079  0.55433173  0.67922431    -0.02200
C2495       C  0.79454530  0.94205995  0.93320451    -0.02200
C2496       C  0.80980259  0.53527221  0.80932034    -0.02200
O2497       O  0.55722448  0.53111328  0.69465668    -0.72700
O2498       O  0.96248981  0.52736006  0.73397272    -0.73700
O2499       O  0.51387486  0.57811311  0.72924662    -0.62300
O2500       O  0.50857981  0.97814708  0.70140594    -0.70700
O2501       O  0.52921929  0.96587743  0.75477285    -0.70200
O2502       O  0.53197313  0.56216263  0.78264668    -0.61500
O2503       O  0.98094688  0.51206461  0.78734912    -0.74000
O2504       O  0.57809879  0.51743207  0.74775470    -0.72800
Cu2505     Cu  0.50958641  0.52893024  0.71289884     1.04600
Cu2506     Cu  0.53066741  0.51370943  0.76988760     1.04300
C2507       C  0.58261343  0.52615344  0.71524683     0.93500
C2508       C  0.95631625  0.52052925  0.76655559     0.92700
C2509       C  0.52459254  0.58535445  0.76070627     0.84800
C2510       C  0.51992894  0.95639374  0.72377719     0.91100
O2511       O  0.79540555  0.77643495  0.64357964    -0.72700
O2512       O  0.69927848  0.77068210  0.68175836    -0.73700
O2513       O  0.75464517  0.72246116  0.67611345    -0.62300
O2514       O  0.73694928  0.82076871  0.64935193    -0.70700
O2515       O  0.71964797  0.80209314  0.59658452    -0.70200
O2516       O  0.73855586  0.70673189  0.62181515    -0.61500
O2517       O  0.68113461  0.75261613  0.62880631    -0.74000
O2518       O  0.77847612  0.75965131  0.58996967    -0.72800
Cu2519     Cu  0.74764498  0.77274756  0.66462461     1.04600
Cu2520     Cu  0.72916259  0.75435566  0.60756608     1.04300
C2521       C  0.80195218  0.77124485  0.61047028     0.93500
C2522       C  0.67488339  0.76387826  0.66037196     0.92700
C2523       C  0.74796282  0.69906407  0.65326615     0.84800
C2524       C  0.72320013  0.82625395  0.61893449     0.91100
C2525       C  0.55057175  0.72147246  0.81763210    -0.02200
C2526       C  0.96717448  0.70230753  0.94674313    -0.02200
C2527       C  0.53204667  0.80821442  0.69358240    -0.02200
C2528       C  0.94451585  0.79989756  0.56552499    -0.02200
C2529       C  0.51033891  0.79886919  0.66003538    -0.05200
C2530       C  0.97551505  0.78911106  0.66292085    -0.32600
C2531       C  0.95517763  0.78294247  0.63288610     0.36600
C2532       C  0.96732910  0.79190632  0.59864480    -0.05600
C2533       C  0.00295837  0.79753911  0.59525216    -0.32500
C2534       C  0.02349442  0.80340502  0.62492444     0.36500
H2535       H  0.46320498  0.78758244  0.68881606     0.16900
O2536       O  0.92384138  0.76814314  0.63790091    -0.60000
H2537       H  0.01400276  0.80273247  0.56935675     0.16900
O2538       O  0.55557933  0.81628286  0.61873481    -0.60100
H2539       H  0.05227892  0.84110677  0.61872192     0.43900
H2540       H  0.92809280  0.74366722  0.63405249     0.43900
C2541       C  0.97004144  0.72529067  0.48108646    -0.05200
C2542       C  0.98193911  0.75876695  0.47840294    -0.32600
C2543       C  0.97766470  0.78241419  0.50610568     0.36600
C2544       C  0.95793992  0.77415160  0.53669944    -0.05600
C2545       C  0.95276640  0.73957543  0.54253805    -0.32500
C2546       C  0.95888394  0.71529485  0.51571327     0.36500
H2547       H  0.99443561  0.76772049  0.95457856     0.16900
O2548       O  0.99562505  0.81206042  0.50422869    -0.60000
H2549       H  0.94139125  0.73149330  0.56744341     0.16900
O2550       O  0.94965505  0.68253918  0.52244587    -0.60100
H2551       H  0.96212374  0.67577383  0.54433358     0.43900
H2552       H  0.99075215  0.82190871  0.48053330     0.43900
C2553       C  0.53210244  0.72942906  0.85431021    -0.05200
C2554       C  0.54765590  0.72089862  0.88707711    -0.32600
C2555       C  0.52794099  0.71333340  0.91732954     0.36600
C2556       C  0.49164558  0.71710052  0.91697413    -0.05600
C2557       C  0.97921732  0.73804157  0.88949257    -0.32500
C2558       C  0.49701352  0.74033211  0.85703553     0.36500
H2559       H  0.57500584  0.71853706  0.88999721     0.16900
O2560       O  0.54497519  0.70260986  0.94690400    -0.60000
H2561       H  0.95404525  0.74985254  0.89128341     0.16900
O2562       O  0.97877449  0.75159807  0.82824363    -0.60100
H2563       H  0.96617871  0.73162978  0.81921779     0.43900
H2564       H  0.55162783  0.72348627  0.95979249     0.43900
C2565       C  0.52184575  0.78820706  0.72857381    -0.05200
C2566       C  0.52987683  0.80175423  0.76283252    -0.32600
C2567       C  0.53765466  0.78125732  0.79206454     0.36600
C2568       C  0.53595346  0.74590512  0.78871378    -0.05600
C2569       C  0.51750680  0.73389429  0.75903909    -0.32500
C2570       C  0.51207003  0.75342750  0.72876306     0.36500
H2571       H  0.53099256  0.82828194  0.76809023     0.16900
O2572       O  0.54894833  0.79598182  0.82313153    -0.60000
H2573       H  0.50755680  0.70858659  0.75816809     0.16900
O2574       O  0.49565161  0.73809907  0.70053213    -0.60100
H2575       H  0.50375462  0.71430965  0.69852426     0.43900
H2576       H  0.52803405  0.80571577  0.83476530     0.43900
C2577       C  0.63965474  0.77405020  0.67059270    -0.05200
C2578       C  0.61290097  0.75114791  0.67002669    -0.32600
C2579       C  0.57883227  0.76184481  0.67622216     0.36600
C2580       C  0.57041935  0.79629650  0.68495272    -0.05600
C2581       C  0.59802386  0.81920665  0.68145204    -0.32500
C2582       C  0.63202723  0.80835971  0.67607074     0.36500
H2583       H  0.61818027  0.72494307  0.66327754     0.16900
O2584       O  0.55392241  0.73868757  0.66956268    -0.60000
H2585       H  0.59390961  0.84599309  0.67992322     0.16900
O2586       O  0.65738244  0.83202155  0.67308002    -0.60100
H2587       H  0.66501364  0.83655776  0.69786514     0.43900
H2588       H  0.55159408  0.73772580  0.64323262     0.43900
C2589       C  0.90490952  0.79618797  0.57307997    -0.05200
C2590       C  0.88384130  0.77385213  0.55329806    -0.32600
C2591       C  0.85058151  0.76535239  0.56492499     0.36600
C2592       C  0.83650837  0.78044232  0.59596297    -0.05600
C2593       C  0.85519009  0.80633525  0.61262987    -0.32500
C2594       C  0.88826772  0.81511537  0.60071616     0.36500
H2595       H  0.89294835  0.76224878  0.52882837     0.16900
O2596       O  0.83240377  0.74177469  0.54598257    -0.60000
H2597       H  0.84419833  0.81985598  0.63532669     0.16900
O2598       O  0.90536302  0.84005446  0.61875430    -0.60100
H2599       H  0.89669826  0.86147140  0.60855447     0.43900
H2600       H  0.84068857  0.71963826  0.55477192     0.43900
C2601       C  0.52900866  0.62040982  0.77304586    -0.05200
C2602       C  0.51304661  0.63045649  0.80491878    -0.32600
C2603       C  0.52006172  0.66158084  0.82104190     0.36600
C2604       C  0.54365089  0.68432384  0.80491424    -0.05600
C2605       C  0.56072005  0.67284592  0.77341517    -0.32500
C2606       C  0.55336756  0.64163853  0.75751893     0.36500
H2607       H  0.99520775  0.61362047  0.81794213     0.16900
O2608       O  0.50345191  0.66862223  0.85250869    -0.60000
H2609       H  0.57918272  0.68890023  0.76026429     0.16900
O2610       O  0.57093490  0.63175447  0.72736363    -0.60100
H2611       H  0.59441917  0.62579114  0.73568703     0.43900
H2612       H  0.01591745  0.65543777  0.87069221     0.43900
C2613       C  0.52340184  0.91989553  0.71453022    -0.05200
C2614       C  0.49957350  0.90406759  0.69255749    -0.32600
C2615       C  0.50063033  0.86896512  0.68654476     0.36600
C2616       C  0.52795030  0.84807868  0.70042324    -0.05600
C2617       C  0.55153004  0.86528928  0.72280468    -0.32500
C2618       C  0.54954978  0.90002212  0.72976967     0.36500
H2619       H  0.47855191  0.91871919  0.68148397     0.16900
O2620       O  0.47307420  0.85599262  0.66886188    -0.60000
H2621       H  0.57215814  0.85156782  0.73570456     0.16900
O2622       O  0.57422911  0.91446123  0.75091362    -0.60100
H2623       H  0.56732281  0.90928650  0.77575454     0.43900
H2624       H  0.95449289  0.85438650  0.68705568     0.43900
C2625       C  0.84952806  0.53270996  0.80026795    -0.05200
C2626       C  0.87162485  0.50874853  0.81687815    -0.32600
C2627       C  0.90644793  0.50483932  0.80701658     0.36600
C2628       C  0.92036377  0.52449030  0.77968210    -0.05600
C2629       C  0.89935422  0.54880911  0.76365970    -0.32500
C2630       C  0.86493502  0.55359487  0.77387006     0.36500
H2631       H  0.86233696  0.49207918  0.83729190     0.16900
O2632       O  0.92632480  0.48102950  0.82369784    -0.60000
H2633       H  0.90967838  0.56452012  0.74275365     0.16900
O2634       O  0.84564657  0.57722533  0.75590186    -0.60100
H2635       H  0.85806485  0.59890181  0.75802533     0.43900
H2636       H  0.92312508  0.45994590  0.80967424     0.43900
C2637       C  0.79046986  0.96745261  0.90128405    -0.05200
C2638       C  0.78485900  0.95633194  0.86555111    -0.32600
C2639       C  0.79001605  0.97731004  0.83593499     0.36600
C2640       C  0.80125132  0.51085672  0.84057805    -0.05600
C2641       C  0.80785565  0.52161321  0.87591463    -0.32500
C2642       C  0.80099370  0.50163537  0.90553899     0.36500
H2643       H  0.77898934  0.93046407  0.85931573     0.16900
O2644       O  0.78642949  0.96359189  0.80244200    -0.60000
H2645       H  0.81880944  0.54616944  0.88104209     0.16900
O2646       O  0.80833604  0.51468429  0.93874640    -0.60100
H2647       H  0.79378376  0.53524640  0.94173260     0.43900
H2648       H  0.80978469  0.95534304  0.79559595     0.43900
C2649       C  0.74848390  0.66272141  0.66309565    -0.05200
C2650       C  0.73224668  0.65224624  0.69448835    -0.32600
C2651       C  0.72512721  0.61791473  0.70037253     0.36600
C2652       C  0.73456264  0.59265577  0.67466437    -0.05600
C2653       C  0.75465622  0.60354509  0.64529787    -0.32500
C2654       C  0.76050167  0.63785213  0.63889691     0.36500
H2655       H  0.72310397  0.67094252  0.71371467     0.16900
O2656       O  0.70832523  0.60955468  0.73120426    -0.60000
H2657       H  0.76532534  0.58560827  0.62620531     0.16900
O2658       O  0.77738363  0.64683328  0.60823706    -0.60100
H2659       H  0.80170981  0.64999088  0.61535826     0.43900
H2660       H  0.68529608  0.62057156  0.73005808     0.43900
C2661       C  0.74630754  0.54213985  0.71265220    -0.05200
C2662       C  0.78188732  0.53538376  0.70966631    -0.32600
C2663       C  0.80142214  0.52464990  0.73907977     0.36600
C2664       C  0.78804081  0.52806483  0.77446515    -0.05600
C2665       C  0.75217269  0.52906636  0.77652461    -0.32500
C2666       C  0.73171685  0.53877564  0.74777028     0.36500
H2667       H  0.79469660  0.53738310  0.68406502     0.16900
O2668       O  0.83232884  0.00904818  0.73242862    -0.60000
H2669       H  0.73934866  0.52302361  0.80094505     0.16900
O2670       O  0.69758389  0.54545046  0.75525614    -0.60100
H2671       H  0.69697952  0.56283498  0.77453598     0.43900
H2672       H  0.82758292  0.98455172  0.73316287     0.43900
C2673       C  0.61735260  0.53220061  0.70174259    -0.05200
C2674       C  0.64230628  0.50696172  0.70403425    -0.32600
C2675       C  0.67635292  0.51347038  0.69449259     0.36600
C2676       C  0.68667301  0.54697145  0.68589833    -0.05600
C2677       C  0.66054291  0.57139333  0.68118125    -0.32500
C2678       C  0.62604701  0.56360242  0.68743958     0.36500
H2679       H  0.63539684  0.48208472  0.71320361     0.16900
O2680       O  0.69991186  0.48739419  0.69551200    -0.60000
H2681       H  0.66638817  0.59626699  0.67150611     0.16900
O2682       O  0.60104880  0.58711556  0.68017945    -0.60100
H2683       H  0.59560662  0.58373072  0.65455405     0.43900
H2684       H  0.70093784  0.48015309  0.72075183     0.43900
C2685       C  0.76893213  0.94777600  0.96517633    -0.05200
C2686       C  0.77053289  0.92410413  0.99307812    -0.32600
C2687       C  0.75219037  0.92821695  0.02498087     0.36600
C2688       C  0.72905808  0.95589938  0.02975108    -0.05600
C2689       C  0.73041322  0.98144693  0.00378676    -0.32500
C2690       C  0.74689704  0.97611487  0.97064260     0.36500
H2691       H  0.78807861  0.90277449  0.99106573     0.16900
O2692       O  0.75857863  0.90548318  0.55158713    -0.60000
H2693       H  0.71450919  0.00386762  0.00714366     0.16900
O2694       O  0.73926369  0.99796024  0.94375022    -0.60100
H2695       H  0.72053288  0.48744422  0.93029739     0.43900
H2696       H  0.78307131  0.90839352  0.55825585     0.43900
C2697       C  0.73056927  0.53438870  0.64297217    -0.05200
C2698       C  0.74952087  0.50389624  0.63948331    -0.32600
C2699       C  0.74517313  0.48228297  0.60981166     0.36600
C2700       C  0.71739700  0.48764872  0.58596107    -0.05600
C2701       C  0.70413846  0.52069725  0.58513922    -0.32500
C2702       C  0.71050158  0.54385313  0.61274917     0.36500
H2703       H  0.76583000  0.49471787  0.66044008     0.16900
O2704       O  0.76540962  0.95385788  0.60721435    -0.60000
H2705       H  0.68713360  0.52847030  0.56391219     0.16900
O2706       O  0.69510624  0.57516566  0.61104108    -0.60100
H2707       H  0.67003646  0.57130123  0.60839267     0.43900
H2708       H  0.78686211  0.96141757  0.59540577     0.43900
C2709       C  0.71049154  0.86017392  0.60852883    -0.05200
C2710       C  0.69607498  0.86383860  0.57454172    -0.32600
C2711       C  0.68877427  0.89559656  0.56085759     0.36600
C2712       C  0.69733019  0.92501833  0.58058990    -0.05600
C2713       C  0.70276735  0.92061995  0.61761329    -0.32500
C2714       C  0.71117118  0.88868939  0.63122281     0.36500
H2715       H  0.69224101  0.84213804  0.55725946     0.16900
O2716       O  0.67782808  0.89728153  0.52633878    -0.60000
H2717       H  0.70275381  0.94184129  0.63589402     0.16900
O2718       O  0.72024216  0.88585473  0.66638445    -0.60100
H2719       H  0.74485352  0.89225440  0.66731351     0.43900
H2720       H  0.65275745  0.89280188  0.52746062     0.43900
C2721       C  0.86298455  0.72328862  0.90309854    -0.05200
C2722       C  0.86813526  0.72371050  0.93987479    -0.32600
C2723       C  0.89887695  0.71249513  0.95494987     0.36600
C2724       C  0.92798152  0.70313861  0.93327893    -0.05600
C2725       C  0.92011054  0.69808465  0.89642175    -0.32500
C2726       C  0.88916003  0.70960003  0.88126091     0.36500
H2727       H  0.84735332  0.73138788  0.95774168     0.16900
O2728       O  0.89749999  0.70708778  0.99070420    -0.60000
H2729       H  0.93942939  0.68862734  0.87789728     0.16900
O2730       O  0.88491585  0.70708682  0.84504951    -0.60100
H2731       H  0.89606837  0.72737204  0.83519967     0.43900
H2732       H  0.88754273  0.68427676  0.99329445     0.43900
C2733       C  0.77923346  0.63961771  0.84001065    -0.05200
C2734       C  0.75624033  0.61354623  0.84546631    -0.32600
C2735       C  0.76580598  0.57995883  0.83778578     0.36600
C2736       C  0.79922292  0.57195690  0.82300451    -0.05600
C2737       C  0.82336158  0.59842164  0.82449807    -0.32500
C2738       C  0.81325871  0.63181431  0.83036825     0.36500
H2739       H  0.73093560  0.61913186  0.85653730     0.16900
O2740       O  0.74461784  0.55521502  0.85047037    -0.60000
H2741       H  0.85064092  0.59406450  0.82176740     0.16900
O2742       O  0.83757094  0.65657209  0.82888148    -0.60100
H2743       H  0.83947535  0.66233227  0.80325715     0.43900
H2744       H  0.72082894  0.56109761  0.84297123     0.43900
C2745       C  0.77087795  0.83743305  0.89977499    -0.05200
C2746       C  0.80360754  0.84478983  0.91293497    -0.32600
C2747       C  0.81218011  0.87744316  0.92430719     0.36600
C2748       C  0.78810540  0.90464986  0.92085948    -0.05600
C2749       C  0.75453156  0.89617686  0.90907620    -0.32500
C2750       C  0.74601263  0.86321560  0.89844397     0.36500
H2751       H  0.82269121  0.82475532  0.91503775     0.16900
O2752       O  0.84366210  0.88148609  0.94001650    -0.60000
H2753       H  0.73479742  0.91564208  0.90772952     0.16900
O2754       O  0.71350910  0.85662472  0.88626684    -0.60100
H2755       H  0.69998718  0.85080403  0.90783208     0.43900
H2756       H  0.84044100  0.87472079  0.96520392     0.43900
C2757       C  0.59109115  0.72478705  0.82080443    -0.05200
C2758       C  0.61041568  0.75032624  0.80347123    -0.32600
C2759       C  0.64569836  0.75515069  0.81023161     0.36600
C2760       C  0.66315572  0.73378646  0.83372851    -0.05600
C2761       C  0.64566894  0.70594169  0.84724044    -0.32500
C2762       C  0.61088850  0.70048235  0.83980012     0.36500
H2763       H  0.59903923  0.76707547  0.78439766     0.16900
O2764       O  0.66254991  0.78124599  0.79424879    -0.60000
H2765       H  0.65918100  0.68794514  0.86380222     0.16900
O2766       O  0.59608946  0.67187634  0.85304966    -0.60100
H2767       H  0.60419949  0.65322909  0.83715383     0.43900
H2768       H  0.65956364  0.80073838  0.81082509     0.43900
C2769       C  0.94997856  0.83736437  0.55414629    -0.05200
C2770       C  0.96817952  0.86014374  0.57620455    -0.32600
C2771       C  0.98086793  0.89030561  0.56351658     0.36600
C2772       C  0.97362969  0.90025226  0.52862820    -0.05600
C2773       C  0.95071327  0.88086665  0.50815354    -0.32500
C2774       C  0.93797030  0.85003953  0.52114264     0.36500
H2775       H  0.97371888  0.85459587  0.60357033     0.16900
O2776       O  0.00036975  0.91004656  0.58575108    -0.60000
H2777       H  0.94230791  0.88983409  0.98237969     0.16900
O2778       O  0.91503885  0.83185689  0.50105146    -0.60100
H2779       H  0.92664183  0.82696768  0.97791063     0.43900
H2780       H  0.02444845  0.90215868  0.58196300     0.43900
C2781       C  0.83207845  0.94853268  0.94665790    -0.05200
C2782       C  0.83865569  0.96176090  0.98140731    -0.32600
C2783       C  0.87013795  0.97591720  0.99046671     0.36600
C2784       C  0.89645606  0.97805062  0.96485473    -0.05600
C2785       C  0.89120050  0.96351961  0.93093775    -0.32500
C2786       C  0.86002094  0.94830646  0.92201285     0.36500
H2787       H  0.81916153  0.96379327  0.00187354     0.16900
O2788       O  0.87437284  0.98840193  0.52442048    -0.60000
H2789       H  0.91145280  0.96372294  0.91093425     0.16900
O2790       O  0.85611196  0.93561552  0.88804380    -0.60100
H2791       H  0.87171020  0.91569426  0.88629700     0.43900
H2792       H  0.88116591  0.96864857  0.53891191     0.43900
C2793       C  0.66503084  0.96891046  0.54806780    -0.05200
C2794       C  0.64023544  0.97896726  0.57415903    -0.32600
C2795       C  0.60658193  0.98911155  0.56504822     0.36600
C2796       C  0.59602077  0.98832330  0.52914588    -0.05600
C2797       C  0.61996961  0.97762637  0.50321817    -0.32500
C2798       C  0.65316235  0.96663803  0.51205851     0.36500
H2799       H  0.64737386  0.47933138  0.60213967     0.16900
O2800       O  0.58409298  0.49848228  0.59181069    -0.60000
H2801       H  0.61247254  0.97589101  0.97546072     0.16900
O2802       O  0.67261588  0.95219003  0.98512638    -0.60100
H2803       H  0.65878663  0.93367510  0.97467836     0.43900
H2804       H  0.58952854  0.52236529  0.59731444     0.43900
C2805       C  0.97934668  0.66467527  0.95313181    -0.05200
C2806       C  0.96923970  0.63873433  0.92908371    -0.32600
C2807       C  0.97775176  0.60467594  0.93429547     0.36600
C2808       C  0.99643129  0.59502561  0.96441082    -0.05600
C2809       C  0.00879350  0.62007801  0.98724970    -0.32500
C2810       C  0.00219129  0.65443226  0.98111182     0.36500
H2811       H  0.95389637  0.64394109  0.90611119     0.16900
O2812       O  0.96517190  0.58076928  0.91121297    -0.60000
H2813       H  0.52375841  0.61294082  0.51036496     0.16900
O2814       O  0.51722872  0.67739841  0.50381146    -0.60100
H2815       H  0.54203961  0.67131198  0.50524508     0.43900
H2816       H  0.98245422  0.57903963  0.89167258     0.40300
loop_ 
_geom_bond_atom_site_label_1 
_geom_bond_atom_site_label_2 
_geom_bond_distance 
_geom_bond_site_symmetry_2 
_ccdc_geom_bond_type 
O1           Cu9   1.965       .  S
O1           C11   1.272       .  A
O2         Cu713   1.990       .  S
O2          C364   1.274   1_554  A
O3           Cu9   2.024       .  S
O3          C365   1.283   1_554  A
O4        Cu1417   2.036   1_455  S
O4           C14   1.281       .  A
O5        Cu1418   1.996       .  S
O5          C366   1.278       .  A
O6          Cu10   1.957       .  S
O6           C13   1.271       .  A
O7         Cu714   2.039   1_545  S
O7           C12   1.282       .  A
O8          Cu10   2.038       .  S
O8          C363   1.282       .  A
Cu9         O706   1.990       .  S
Cu9        O1412   2.036       .  S
Cu9        Cu362   2.369   1_554  S
Cu10       O1413   1.996       .  S
Cu10        O711   2.039       .  S
Cu10       Cu361   2.369       .  S
C11         O360   1.282   1_554  A
C11         C308   1.473       .  S
C12         O354   1.274       .  A
C12         C344   1.479       .  S
C13         O355   1.283       .  A
C13         C320   1.479       .  S
C14         O357   1.278   1_554  A
C14         C332   1.494       .  S
O15         Cu23   1.974       .  S
O15          C25   1.275       .  A
O16         Cu23   1.984       .  S
O16          C26   1.274       .  A
O17         Cu23   2.013       .  S
O17          C27   1.278       .  A
O18         Cu23   2.028       .  S
O18          C28   1.280       .  A
O19         Cu24   2.012       .  S
O19          C28   1.277       .  A
O20         Cu24   1.986       .  S
O20          C27   1.275       .  A
O21         Cu24   2.055       .  S
O21          C26   1.284       .  A
O22         Cu24   2.041       .  S
O22          C25   1.282       .  A
Cu23        Cu24   2.373       .  S
C25         C257   1.483       .  S
C26         C296   1.485       .  S
C27         C269   1.465       .  S
C28         C281   1.477       .  S
C29         C248   1.565       .  S
C29         C329   1.577       .  S
C29         C576   1.563       .  S
C29         C940   1.570       .  S
C30         C188   1.576       .  S
C30         C197   1.577       .  S
C30         C212   1.550       .  S
C30         C233   1.576       .  S
C31         C173   1.580       .  S
C31         C221   1.566       .  S
C31         C284   1.572       .  S
C31         C317   1.568       .  S
C32         C161   1.579       .  S
C32         C176   1.564       .  S
C32         C200   1.585       .  S
C32         C272   1.586       .  S
O33         Cu41   1.971       .  S
O33          C43   1.270       .  A
O34       Cu1449   1.989       .  S
O34          C44   1.276       .  A
O35         Cu41   2.046       .  S
O35          C45   1.283       .  A
O36        Cu745   2.060       .  S
O36          C46   1.286       .  A
O37        Cu746   1.978       .  S
O37          C46   1.272       .  A
O38         Cu42   1.976       .  S
O38          C45   1.272       .  A
O39       Cu1450   2.037       .  S
O39          C44   1.281       .  A
O40         Cu42   2.023       .  S
O40          C43   1.282       .  A
Cu41       O1442   1.989   1_455  S
Cu41        O740   2.060   1_545  S
Cu41        Cu42   2.373       .  S
Cu42        O741   1.978   1_545  S
Cu42       O1447   2.037   1_455  S
C43         C209   1.461       .  S
C44         C164   1.484       .  S
C45         C137   1.472       .  S
C46         C149   1.489       .  S
O47         Cu55   2.017       .  S
O47          C57   1.279       .  A
O48         Cu55   1.983       .  S
O48          C58   1.273       .  A
O49         Cu55   2.060       .  S
O49          C59   1.285       .  A
O50         Cu55   2.034       .  S
O50          C60   1.281       .  A
O51         Cu56   1.974       .  S
O51          C60   1.275       .  A
O52         Cu56   1.999       .  S
O52          C59   1.275       .  A
O53         Cu56   2.025       .  S
O53          C58   1.281       .  A
O54         Cu56   2.035       .  S
O54          C57   1.281       .  A
Cu55        Cu56   2.369       .  S
C57         C128   1.495       .  S
C58         C113   1.469       .  S
C59         C185   1.491       .  S
C60         C245   1.485       .  S
C61          C89   1.574       .  S
C61         C104   1.566       .  S
C61         C140   1.569       .  S
C61         C293   1.585       .  S
C62         C260   1.606       .  S
C62         C341   1.582       .  S
C62         C429   1.573       .  S
C62        C1500   1.583       .  S
C63          C65   1.561       .  S
C63         C101   1.590       .  S
C63         C116   1.589       .  S
C63         C152   1.605       .  S
C64          C68   1.562       .  S
C64          C80   1.562       .  S
C64         C125   1.570       .  S
C64         C305   1.567       .  S
C65        C1474   1.414   1_455  A
C65        C1478   1.423       .  A
C66          C67   1.399       .  A
C66        C1473   1.414       .  A
C66        H1479   1.082       .  S
C67          C68   1.415       .  A
C67          O72   1.369       .  S
C68          C69   1.409       .  A
C69          C70   1.391       .  A
C69          H73   1.081       .  S
C70        C1473   1.423       .  A
C70        O1482   1.371       .  S
H71        C1474   1.082       .  S
O72          H76   0.992       .  S
O74        C1478   1.371       .  S
O74        H1483   0.992       .  S
H75        O1482   0.992       .  S
C77         C414   1.573       .  S
C77          C78   1.414       .  A
C77          C82   1.427   1_556  A
C78          C79   1.399   1_556  A
C78         H435   1.079       .  S
C79          C80   1.418       .  A
C79          O84   1.375       .  S
C80          C81   1.407       .  A
C81          C82   1.402       .  A
C81          H85   1.083       .  S
C82          O86   1.377       .  S
H83         C430   1.079       .  S
O84          H88   0.992   1_554  S
O86          H87   0.993       .  S
C89          C90   1.414       .  A
C89          C94   1.428   1_455  A
C90          C91   1.401       .  A
C90          H95   1.071       .  S
C91          C92   1.416   1_455  A
C91          O96   1.363       .  S
C92        C1470   1.583       .  S
C92        C1501   1.413       .  A
C93        C1500   1.413       .  A
C93        C1502   1.400       .  A
C93          H97   1.081       .  S
C94        C1501   1.400       .  A
C94        O1506   1.370       .  S
O96         H100   0.991       .  S
O98        C1502   1.370       .  S
O98          H99   0.992       .  S
C101        C102   1.424       .  A
C101        C106   1.434       .  A
C102        C103   1.404       .  A
C102        H107   1.070       .  S
C103        C104   1.408       .  A
C103        O108   1.373       .  S
C104        C105   1.408       .  A
C105        C106   1.397       .  A
C105        H109   1.079       .  S
C106        O110   1.377   1_455  S
O108        H112   0.992       .  S
O110        H111   0.993   1_655  S
C113        C114   1.387       .  A
C113        C118   1.402       .  A
C114        C115   1.402       .  A
C114        H119   1.084       .  S
C115        C116   1.435       .  A
C115        O120   1.363       .  S
C116        C117   1.419       .  A
C117        C118   1.397       .  A
C117        H121   1.075       .  S
C118        O122   1.372       .  S
O120        H124   0.992       .  S
O122        H123   0.992       .  S
C125        C126   1.418       .  A
C125        C130   1.421       .  A
C126        C127   1.406       .  A
C126        H131   1.078       .  S
C127        C128   1.407       .  A
C127        O132   1.371       .  S
C128        C129   1.406       .  A
C129        C130   1.405       .  A
C129        H133   1.083       .  S
C130        O134   1.371       .  S
O132        H136   0.992       .  S
O134        H135   0.991       .  S
C137        C138   1.395       .  A
C137        C142   1.401       .  A
C138        C139   1.398       .  A
C138       H1551   1.085   1_455  S
C139        C140   1.428       .  A
C139        O144   1.365       .  S
C140        C141   1.419       .  A
C141        C142   1.400       .  A
C141        H145   1.084       .  S
C142        O146   1.368       .  S
H143       C1546   1.085       .  S
O144       H1556   0.992       .  S
O146        H147   0.992       .  S
H148       O1552   0.992       .  S
C149        C150   1.392   1_455  A
C149        C154   1.406       .  A
C150        C151   1.408   1_655  A
C150        H155   1.084       .  S
C151        C152   1.442       .  A
C151        O156   1.364   1_455  S
C152        C153   1.420       .  A
C153        C154   1.400       .  A
C153        H157   1.083       .  S
C154        O158   1.372       .  S
O156       H1568   0.993       .  S
O158        H159   0.992       .  S
H160       O1564   0.992       .  S
C161        C162   1.424       .  A
C161        C166   1.430       .  A
C162        C163   1.406       .  A
C162        H167   1.079   1_545  S
C163        C164   1.403       .  A
C163        O168   1.372   1_545  S
C164        C165   1.399       .  A
C165        C166   1.398       .  A
C165        H169   1.084       .  S
C166        O170   1.377       .  S
O168        H172   0.992       .  S
O170        H171   0.992       .  S
C173        C174   1.424       .  A
C173        C882   1.423       .  A
C174        C175   1.409       .  A
C174        H179   1.076       .  S
C175        C880   1.413       .  A
C175        O180   1.371       .  S
C176        C177   1.412       .  A
C176        C879   1.413   1_545  A
C177        C178   1.397       .  A
C177        H181   1.082       .  S
C178        C877   1.423   1_545  A
C178        O182   1.375       .  S
O180        H184   0.992       .  S
O182        H183   0.992       .  S
C185        C186   1.401       .  A
C185        C190   1.406       .  A
C186        C187   1.411       .  A
C186        H191   1.084       .  S
C187        C188   1.426       .  A
C187        O192   1.369       .  S
C188        C189   1.419       .  A
C189        C190   1.405       .  A
C189        H193   1.081       .  S
C190        O194   1.372       .  S
O192        H196   0.992       .  S
O194        H195   0.992       .  S
C197        C198   1.408       .  A
C197        C202   1.438       .  A
C198        C199   1.409       .  A
C198        H203   1.082       .  S
C199        C200   1.426       .  A
C199        O908   1.370       .  S
C200        C201   1.394       .  A
C201        C202   1.398       .  A
C201        H205   1.070       .  S
C202        O206   1.375       .  S
O204        C903   1.370       .  S
O204        H208   0.992       .  S
O206        H207   0.993       .  S
C209        C210   1.389       .  A
C209        C214   1.405       .  A
C210        C211   1.395       .  A
C210        H215   1.084   1_545  S
C211        C212   1.431       .  A
C211        O216   1.374   1_545  S
C212        C213   1.408       .  A
C213        C214   1.397       .  A
C213        H217   1.080       .  S
C214        O218   1.369       .  S
O216        H220   0.992       .  S
O218        H219   0.992       .  S
C221        C222   1.414       .  A
C221        C226   1.418       .  A
C222        C223   1.395       .  A
C222        H227   1.082       .  S
C223        C224   1.420       .  A
C223        O580   1.373       .  S
C224        C381   1.563       .  S
C224        C225   1.414       .  A
C225        C226   1.407       .  A
C225        H229   1.083       .  S
C226        O230   1.368       .  S
O228        C575   1.373       .  S
O228        H232   0.992       .  S
O230        H935   0.992       .  S
H231        O934   0.992       .  S
C233        C234   1.413       .  A
C233        C238   1.430       .  A
C234        C235   1.408   1_545  A
C234        H239   1.076   1_545  S
C235        C236   1.420       .  A
C235        O944   1.369       .  S
C236        C733   1.570       .  S
C236        C237   1.404   1_565  A
C237        C238   1.400       .  A
C237        H241   1.082       .  S
C238        O242   1.375       .  S
O240        C939   1.369       .  S
O240        H244   0.992       .  S
O242        H243   0.992       .  S
C245        C246   1.403       .  A
C245        C250   1.408       .  A
C246        C247   1.392       .  A
C246        H251   1.083       .  S
C247        C248   1.418       .  A
C247        O252   1.366       .  S
C248        C249   1.417       .  A
C249        C250   1.406       .  A
C249        H253   1.079       .  S
C250        O254   1.371       .  S
O252        H256   0.992       .  S
O254        H255   0.992       .  S
C257        C258   1.394       .  A
C257        C262   1.402       .  A
C258        C259   1.394       .  A
C258        H263   1.084       .  S
C259        C260   1.431       .  A
C259        O264   1.360       .  S
C260        C261   1.429       .  A
C261        C262   1.406       .  A
C261        H265   1.081       .  S
C262        O266   1.371       .  S
O264        H268   0.993       .  S
O266        H267   0.991       .  S
C269        C270   1.389       .  A
C269        C274   1.398       .  A
C270        C271   1.405       .  A
C270        H275   1.084       .  S
C271        C272   1.439       .  A
C271        O276   1.374       .  S
C272        C273   1.415       .  A
C273        C274   1.392       .  A
C273        H277   1.075       .  S
C274        O278   1.370       .  S
O276        H280   0.993       .  S
O278        H279   0.992       .  S
C281        C282   1.398       .  A
C281        C286   1.400       .  A
C282        C283   1.403       .  A
C282        H287   1.084       .  S
C283        C284   1.427       .  A
C283        O288   1.370       .  S
C284        C285   1.421       .  A
C285        C286   1.405       .  A
C285        H289   1.084       .  S
C286        O290   1.371       .  S
O288        H292   0.992       .  S
O290        H291   0.992       .  S
C293        C294   1.427       .  A
C293        C298   1.426       .  A
C294        C295   1.409       .  A
C294        H299   1.075       .  S
C295        C296   1.401       .  A
C295        O300   1.371       .  S
C296        C297   1.400       .  A
C297        C298   1.399       .  A
C297        H301   1.084       .  S
C298        O302   1.373       .  S
O300        H304   0.992       .  S
O302        H303   0.992       .  S
C305        C306   1.415       .  A
C305        C310   1.420       .  A
C306        C307   1.386       .  A
C306        H311   1.074       .  S
C307        C308   1.399       .  A
C307        O312   1.373       .  S
C308        C309   1.407       .  A
C309        C310   1.414       .  A
C309        H665   1.084   1_554  S
C310        O314   1.374       .  S
O312        H316   0.992       .  S
H313        C661   1.084       .  S
O314        H667   0.992   1_554  S
H315        O666   0.992       .  S
C317        C318   1.424       .  A
C317        C322   1.421       .  A
C318        C319   1.392       .  A
C318        H323   1.076       .  S
C319        C320   1.402       .  A
C319        O676   1.372       .  S
C320        C321   1.407       .  A
C321        C322   1.399       .  A
C321        H325   1.083       .  S
C322        O326   1.373       .  S
O324        C671   1.372   1_554  S
O324        H328   0.992       .  S
O326        H327   0.992       .  S
C329        C330   1.419       .  A
C329        C334   1.430       .  A
C330        C331   1.408       .  A
C330       H1039   1.084       .  S
C331        C332   1.409       .  A
C331       O1040   1.371       .  S
C332        C333   1.400       .  A
C333        C334   1.399       .  A
C333        H689   1.084   1_554  S
C334        O690   1.374   1_554  S
H335       C1034   1.084       .  S
O336       C1035   1.371       .  S
O336        H340   0.992   1_565  S
H337        C685   1.084       .  S
O338        C686   1.374       .  S
O338        H339   0.993       .  S
C341        C342   1.420       .  A
C341        C346   1.437       .  A
C342        C343   1.403       .  A
C342        H347   1.070       .  S
C343        C344   1.400       .  A
C343        O348   1.372       .  S
C344        C345   1.395       .  A
C345        C346   1.405       .  A
C345       H2109   1.084       .  S
C346       O2110   1.376       .  S
O348        H352   0.992       .  S
H349       C2105   1.084   1_554  S
O350       C2106   1.376   1_554  S
O350        H351   0.992       .  S
O353       Cu361   1.965       .  S
O353        C363   1.272       .  A
O354      Cu1065   1.990       .  S
O355       Cu361   2.024       .  S
O356      Cu1769   2.036   1_455  S
O356        C366   1.281       .  A
O357      Cu1770   1.996       .  S
O358       Cu362   1.957       .  S
O358        C365   1.271       .  A
O359      Cu1066   2.039   1_545  S
O359        C364   1.282       .  A
O360       Cu362   2.038       .  S
Cu361      O1058   1.990       .  S
Cu361      O1764   2.036       .  S
Cu362      O1765   1.996       .  S
Cu362      O1063   2.039       .  S
C363        C660   1.473       .  S
C364        C696   1.479       .  S
C365        C672   1.479       .  S
C366        C684   1.494       .  S
O367       Cu375   1.974       .  S
O367        C377   1.275       .  A
O368       Cu375   1.984       .  S
O368        C378   1.274       .  A
O369       Cu375   2.013       .  S
O369        C379   1.278       .  A
O370       Cu375   2.028       .  S
O370        C380   1.280       .  A
O371       Cu376   2.012       .  S
O371        C380   1.277       .  A
O372       Cu376   1.986       .  S
O372        C379   1.275       .  A
O373       Cu376   2.055       .  S
O373        C378   1.284       .  A
O374       Cu376   2.041       .  S
O374        C377   1.282       .  A
Cu375      Cu376   2.373       .  S
C377        C609   1.483       .  S
C378        C648   1.485       .  S
C379        C621   1.465       .  S
C380        C633   1.477       .  S
C381       C1292   1.570       .  S
C381        C600   1.565       .  S
C381        C681   1.577       .  S
C382        C540   1.576       .  S
C382        C549   1.577       .  S
C382        C564   1.550       .  S
C382        C585   1.576       .  S
C383        C525   1.580       .  S
C383        C573   1.566       .  S
C383        C636   1.572       .  S
C383        C669   1.568       .  S
C384        C513   1.579       .  S
C384        C528   1.564       .  S
C384        C552   1.585       .  S
C384        C624   1.586       .  S
O385       Cu393   1.971       .  S
O385        C395   1.270       .  A
O386      Cu1801   1.989       .  S
O386        C396   1.276       .  A
O387       Cu393   2.046       .  S
O387        C397   1.283       .  A
O388      Cu1097   2.060       .  S
O388        C398   1.286       .  A
O389      Cu1098   1.978       .  S
O389        C398   1.272       .  A
O390       Cu394   1.976       .  S
O390        C397   1.272       .  A
O391      Cu1802   2.037       .  S
O391        C396   1.281       .  A
O392       Cu394   2.023       .  S
O392        C395   1.282       .  A
Cu393      O1794   1.989   1_455  S
Cu393      O1092   2.060   1_545  S
Cu393      Cu394   2.373       .  S
Cu394      O1093   1.978   1_545  S
Cu394      O1799   2.037   1_455  S
C395        C561   1.461       .  S
C396        C516   1.484       .  S
C397        C489   1.472       .  S
C398        C501   1.489       .  S
O399       Cu407   2.017       .  S
O399        C409   1.279       .  A
O400       Cu407   1.983       .  S
O400        C410   1.273       .  A
O401       Cu407   2.060       .  S
O401        C411   1.285       .  A
O402       Cu407   2.034       .  S
O402        C412   1.281       .  A
O403       Cu408   1.974       .  S
O403        C412   1.275       .  A
O404       Cu408   1.999       .  S
O404        C411   1.275       .  A
O405       Cu408   2.025       .  S
O405        C410   1.281       .  A
O406       Cu408   2.035       .  S
O406        C409   1.281       .  A
Cu407      Cu408   2.369       .  S
C409        C480   1.495       .  S
C410        C465   1.469       .  S
C411        C537   1.491       .  S
C412        C597   1.485       .  S
C413        C441   1.574       .  S
C413        C456   1.566       .  S
C413        C492   1.569       .  S
C413        C645   1.585       .  S
C414       C1852   1.583       .  S
C414        C612   1.606       .  S
C414        C693   1.582       .  S
C415        C417   1.561       .  S
C415        C453   1.590       .  S
C415        C468   1.589       .  S
C415        C504   1.605       .  S
C416        C420   1.562       .  S
C416        C432   1.562       .  S
C416        C477   1.570       .  S
C416        C657   1.567       .  S
C417       C1826   1.414   1_455  A
C417       C1830   1.423       .  A
C418       C1825   1.414       .  A
C418        C419   1.399       .  A
C418       H1831   1.082       .  S
C419        C420   1.415       .  A
C419        O424   1.369       .  S
C420        C421   1.409       .  A
C421        C422   1.391       .  A
C421        H425   1.081       .  S
C422       C1825   1.423       .  A
C422       O1834   1.371       .  S
H423       C1826   1.082       .  S
O424        H428   0.992       .  S
O426       C1830   1.371       .  S
O426       H1835   0.992       .  S
H427       O1834   0.992       .  S
C429        C430   1.414       .  A
C429        C434   1.427       .  A
C430        C431   1.399       .  A
C431        C432   1.418       .  A
C431        O436   1.375       .  S
C432        C433   1.407       .  A
C433        C434   1.402       .  A
C433        H437   1.083       .  S
C434        O438   1.377       .  S
O436        H440   0.992       .  S
O438        H439   0.993       .  S
C441        C442   1.414       .  A
C441        C446   1.428   1_455  A
C442        C443   1.401       .  A
C442        H447   1.071       .  S
C443        C444   1.416   1_455  A
C443        O448   1.363       .  S
C444       C1822   1.583       .  S
C444       C1853   1.413       .  A
C445       C1852   1.413       .  A
C445       C1854   1.400       .  A
C445        H449   1.081       .  S
C446       C1853   1.400       .  A
C446       O1858   1.370       .  S
O448        H452   0.991       .  S
O450       C1854   1.370       .  S
O450        H451   0.992       .  S
C453        C454   1.424       .  A
C453        C458   1.434       .  A
C454        C455   1.404       .  A
C454        H459   1.070       .  S
C455        C456   1.408       .  A
C455        O460   1.373       .  S
C456        C457   1.408       .  A
C457        C458   1.397       .  A
C457        H461   1.079       .  S
C458        O462   1.377   1_455  S
O460        H464   0.992       .  S
O462        H463   0.993   1_655  S
C465        C466   1.387       .  A
C465        C470   1.402       .  A
C466        C467   1.402       .  A
C466        H471   1.084       .  S
C467        C468   1.435       .  A
C467        O472   1.363       .  S
C468        C469   1.419       .  A
C469        C470   1.397       .  A
C469        H473   1.075       .  S
C470        O474   1.372       .  S
O472        H476   0.992       .  S
O474        H475   0.992       .  S
C477        C478   1.418       .  A
C477        C482   1.421       .  A
C478        C479   1.406       .  A
C478        H483   1.078       .  S
C479        C480   1.407       .  A
C479        O484   1.371       .  S
C480        C481   1.406       .  A
C481        C482   1.405       .  A
C481        H485   1.083       .  S
C482        O486   1.371       .  S
O484        H488   0.992       .  S
O486        H487   0.991       .  S
C489        C490   1.395       .  A
C489        C494   1.401       .  A
C490        C491   1.398       .  A
C490       H1903   1.085   1_455  S
C491        C492   1.428       .  A
C491        O496   1.365       .  S
C492        C493   1.419       .  A
C493        C494   1.400       .  A
C493        H497   1.084       .  S
C494        O498   1.368       .  S
H495       C1898   1.085       .  S
O496       H1908   0.992       .  S
O498        H499   0.992       .  S
H500       O1904   0.992       .  S
C501        C502   1.392   1_455  A
C501        C506   1.406       .  A
C502        C503   1.408   1_655  A
C502        H507   1.084       .  S
C503        C504   1.442       .  A
C503        O508   1.364   1_455  S
C504        C505   1.420       .  A
C505        C506   1.400       .  A
C505        H509   1.083       .  S
C506        O510   1.372       .  S
O508       H1920   0.992       .  S
O510        H511   0.992       .  S
H512       O1916   0.992       .  S
C513        C514   1.424       .  A
C513        C518   1.430       .  A
C514        C515   1.406       .  A
C514        H519   1.079   1_545  S
C515        C516   1.403       .  A
C515        O520   1.372   1_545  S
C516        C517   1.399       .  A
C517        C518   1.398       .  A
C517        H521   1.084       .  S
C518        O522   1.377       .  S
O520        H524   0.992       .  S
O522        H523   0.992       .  S
C525        C526   1.424       .  A
C525       C1234   1.423       .  A
C526        C527   1.409       .  A
C526        H531   1.076       .  S
C527       C1232   1.413       .  A
C527        O532   1.371       .  S
C528       C1231   1.413   1_545  A
C528        C529   1.412       .  A
C529        C530   1.397       .  A
C529        H533   1.082       .  S
C530       C1229   1.423   1_545  A
C530        O534   1.375       .  S
O532        H536   0.992       .  S
O534        H535   0.992       .  S
C537        C538   1.401       .  A
C537        C542   1.406       .  A
C538        C539   1.411       .  A
C538        H543   1.084       .  S
C539        C540   1.426       .  A
C539        O544   1.369       .  S
C540        C541   1.419       .  A
C541        C542   1.405       .  A
C541        H545   1.081       .  S
C542        O546   1.372       .  S
O544        H548   0.992       .  S
O546        H547   0.992       .  S
C549        C550   1.408       .  A
C549        C554   1.438       .  A
C550        C551   1.409       .  A
C550        H555   1.082       .  S
C551        C552   1.426       .  A
C551       O1260   1.370       .  S
C552        C553   1.394       .  A
C553        C554   1.398       .  A
C553        H557   1.070       .  S
C554        O558   1.375       .  S
O556       C1255   1.370       .  S
O556        H560   0.992       .  S
O558        H559   0.993       .  S
C561        C562   1.389       .  A
C561        C566   1.405       .  A
C562        C563   1.395       .  A
C562        H567   1.084   1_545  S
C563        C564   1.431       .  A
C563        O568   1.374   1_545  S
C564        C565   1.408       .  A
C565        C566   1.397       .  A
C565        H569   1.080       .  S
C566        O570   1.369       .  S
O568        H572   0.992       .  S
O570        H571   0.992       .  S
C573        C574   1.414       .  A
C573        C578   1.418       .  A
C574        C575   1.395   1_556  A
C574        H579   1.082       .  S
C575        C576   1.420       .  A
C576        C577   1.414       .  A
C577        C578   1.407   1_554  A
C577        H581   1.083       .  S
C578        O582   1.368       .  S
O580        H584   0.992       .  S
O582       H1287   0.992       .  S
H583       O1286   0.992       .  S
C585        C586   1.413       .  A
C585        C590   1.430       .  A
C586        C587   1.408   1_545  A
C586        H591   1.076   1_545  S
C587        C588   1.421       .  A
C587       O1296   1.369       .  S
C588       C1085   1.570       .  S
C588        C589   1.404   1_565  A
C589        C590   1.401       .  A
C589        H593   1.082       .  S
C590        O594   1.375       .  S
O592       C1291   1.369       .  S
O592        H596   0.992       .  S
O594        H595   0.992       .  S
C597        C598   1.402       .  A
C597        C602   1.408       .  A
C598        C599   1.392       .  A
C598        H603   1.083       .  S
C599        C600   1.418       .  A
C599        O604   1.366       .  S
C600        C601   1.417       .  A
C601        C602   1.406       .  A
C601        H605   1.079       .  S
C602        O606   1.371       .  S
O604        H608   0.992       .  S
O606        H607   0.992       .  S
C609        C610   1.394       .  A
C609        C614   1.402       .  A
C610        C611   1.394       .  A
C610        H615   1.084       .  S
C611        C612   1.431       .  A
C611        O616   1.360       .  S
C612        C613   1.429       .  A
C613        C614   1.406       .  A
C613        H617   1.081       .  S
C614        O618   1.371       .  S
O616        H620   0.993       .  S
O618        H619   0.991       .  S
C621        C622   1.389       .  A
C621        C626   1.398       .  A
C622        C623   1.405       .  A
C622        H627   1.084       .  S
C623        C624   1.439       .  A
C623        O628   1.374       .  S
C624        C625   1.415       .  A
C625        C626   1.392       .  A
C625        H629   1.075       .  S
C626        O630   1.370       .  S
O628        H632   0.993       .  S
O630        H631   0.992       .  S
C633        C634   1.398       .  A
C633        C638   1.400       .  A
C634        C635   1.402       .  A
C634        H639   1.084       .  S
C635        C636   1.427       .  A
C635        O640   1.370       .  S
C636        C637   1.421       .  A
C637        C638   1.405       .  A
C637        H641   1.084       .  S
C638        O642   1.371       .  S
O640        H644   0.992       .  S
O642        H643   0.992       .  S
C645        C646   1.427       .  A
C645        C650   1.426       .  A
C646        C647   1.409       .  A
C646        H651   1.075       .  S
C647        C648   1.401       .  A
C647        O652   1.371       .  S
C648        C649   1.400       .  A
C649        C650   1.399       .  A
C649        H653   1.084       .  S
C650        O654   1.373       .  S
O652        H656   0.992       .  S
O654        H655   0.992       .  S
C657        C658   1.415       .  A
C657        C662   1.420       .  A
C658        C659   1.386       .  A
C658        H663   1.074       .  S
C659        C660   1.399       .  A
C659        O664   1.373       .  S
C660        C661   1.407       .  A
C661        C662   1.414       .  A
C662        O666   1.374       .  S
O664        H668   0.992       .  S
C669        C670   1.424       .  A
C669        C674   1.421       .  A
C670        C671   1.392       .  A
C670        H675   1.076   1_556  S
C671        C672   1.402       .  A
C672        C673   1.407       .  A
C673        C674   1.399       .  A
C673        H677   1.083       .  S
C674        O678   1.373       .  S
O676        H680   0.992       .  S
O678        H679   0.992       .  S
C681        C682   1.419       .  A
C681        C686   1.430       .  A
C682        C683   1.408       .  A
C682       H1391   1.084       .  S
C683        C684   1.409       .  A
C683       O1392   1.371       .  S
C684        C685   1.400       .  A
C685        C686   1.399       .  A
H687       C1386   1.084       .  S
O688       C1387   1.371       .  S
O688        H692   0.992   1_565  S
O690        H691   0.993       .  S
C693        C694   1.420       .  A
C693        C698   1.437       .  A
C694        C695   1.403       .  A
C694        H699   1.070       .  S
C695        C696   1.399       .  A
C695        O700   1.372       .  S
C696        C697   1.395       .  A
C697        C698   1.405       .  A
C697       H1757   1.084   1_556  S
C698       O1758   1.376   1_556  S
O700        H704   0.992       .  S
H701       C1753   1.084       .  S
O702       C1754   1.376       .  S
O702        H703   0.993       .  S
O705       Cu713   1.964   1_565  S
O705        C715   1.272       .  A
O706       C1068   1.274   1_554  A
O707       Cu713   2.024       .  S
O707       C1069   1.283   1_544  A
O708      Cu2121   2.036   1_455  S
O708        C718   1.281   1_545  A
O709      Cu2122   1.996       .  S
O709       C1070   1.278       .  A
O710       Cu714   1.957       .  S
O710        C717   1.271       .  A
O711        C716   1.282       .  A
O712       Cu714   2.037       .  S
O712       C1067   1.282       .  A
Cu713      O2116   2.036       .  S
Cu713     Cu1066   2.369   1_544  S
Cu714      O2117   1.996       .  S
Cu714     Cu1065   2.369   1_565  S
C715       O1064   1.282   1_554  A
C715       C1012   1.472       .  S
C716       O1058   1.274       .  A
C716       C1048   1.479       .  S
C717       O1059   1.283   1_565  A
C717       C1024   1.479       .  S
C718       O1061   1.278   1_554  A
C718       C1036   1.494       .  S
O719       Cu727   1.974       .  S
O719        C729   1.275       .  A
O720       Cu727   1.984       .  S
O720        C730   1.274       .  A
O721       Cu727   2.014       .  S
O721        C731   1.278       .  A
O722       Cu727   2.029       .  S
O722        C732   1.280       .  A
O723       Cu728   2.012       .  S
O723        C732   1.277       .  A
O724       Cu728   1.986       .  S
O724        C731   1.274       .  A
O725       Cu728   2.055       .  S
O725        C730   1.284       .  A
O726       Cu728   2.041       .  S
O726        C729   1.282       .  A
Cu727      Cu728   2.373       .  S
C729        C961   1.483       .  S
C730       C1000   1.485       .  S
C731        C973   1.465       .  S
C732        C985   1.477       .  S
C733       C1280   1.563       .  S
C733        C952   1.565       .  S
C733       C1033   1.578       .  S
C734        C892   1.576       .  S
C734        C901   1.577       .  S
C734        C916   1.550       .  S
C734        C937   1.576       .  S
C735        C877   1.580       .  S
C735        C925   1.566       .  S
C735        C988   1.572       .  S
C735       C1021   1.567       .  S
C736        C865   1.579       .  S
C736        C880   1.564       .  S
C736        C904   1.585       .  S
C736        C976   1.586       .  S
O737       Cu745   1.971       .  S
O737        C747   1.270       .  A
O738      Cu2153   1.989       .  S
O738        C748   1.276       .  A
O739       Cu745   2.046       .  S
O739        C749   1.283       .  A
O740        C750   1.286       .  A
O741        C750   1.272       .  A
O742       Cu746   1.976       .  S
O742        C749   1.272       .  A
O743      Cu2154   2.036       .  S
O743        C748   1.281       .  A
O744       Cu746   2.023       .  S
O744        C747   1.282       .  A
Cu745      O2146   1.989   1_455  S
Cu745      Cu746   2.373       .  S
Cu746      O2151   2.036   1_455  S
C747        C913   1.461       .  S
C748        C868   1.484       .  S
C749        C841   1.472       .  S
C750        C853   1.489       .  S
O751       Cu759   2.018       .  S
O751        C761   1.279       .  A
O752       Cu759   1.984       .  S
O752        C762   1.273       .  A
O753       Cu759   2.060       .  S
O753        C763   1.285       .  A
O754       Cu759   2.034       .  S
O754        C764   1.281       .  A
O755       Cu760   1.973       .  S
O755        C764   1.275       .  A
O756       Cu760   1.999       .  S
O756        C763   1.275       .  A
O757       Cu760   2.025       .  S
O757        C762   1.281       .  A
O758       Cu760   2.035       .  S
O758        C761   1.281       .  A
Cu759      Cu760   2.369       .  S
C761        C832   1.495       .  S
C762        C817   1.469       .  S
C763        C889   1.491       .  S
C764        C949   1.485       .  S
C765        C793   1.574       .  S
C765        C808   1.566       .  S
C765        C844   1.570       .  S
C765        C997   1.585       .  S
C766       C1133   1.573       .  S
C766       C2204   1.583       .  S
C766        C964   1.606       .  S
C766       C1045   1.582       .  S
C767        C769   1.561       .  S
C767        C805   1.590       .  S
C767        C820   1.589       .  S
C767        C856   1.605       .  S
C768        C772   1.562       .  S
C768        C784   1.562       .  S
C768        C829   1.571       .  S
C768       C1009   1.566       .  S
C769       C2178   1.414   1_455  A
C769       C2182   1.423       .  A
C770       C2177   1.414       .  A
C770        C771   1.399       .  A
C770       H2183   1.082       .  S
C771        C772   1.415       .  A
C771        O776   1.369       .  S
C772        C773   1.409       .  A
C773        C774   1.391       .  A
C773        H777   1.081       .  S
C774       C2177   1.423       .  A
C774       O2186   1.371       .  S
H775       C2178   1.082       .  S
O776        H780   0.992       .  S
O778       C2182   1.371       .  S
O778       H2187   0.992       .  S
H779       O2186   0.992       .  S
C781       C1118   1.573       .  S
C781        C782   1.415       .  A
C781        C786   1.427   1_556  A
C782        C783   1.399   1_556  A
C782       H1139   1.079       .  S
C783        C784   1.418       .  A
C783        O788   1.375       .  S
C784        C785   1.407       .  A
C785        C786   1.402       .  A
C785        H789   1.083       .  S
C786        O790   1.377       .  S
H787       C1134   1.079       .  S
O788        H792   0.992   1_554  S
O790        H791   0.993       .  S
C793        C794   1.414       .  A
C793        C798   1.428   1_455  A
C794        C795   1.401       .  A
C794        H799   1.071       .  S
C795        C796   1.416   1_455  A
C795        O800   1.364       .  S
C796       C2174   1.582       .  S
C796       C2205   1.413       .  A
C797       C2204   1.413       .  A
C797       C2206   1.400       .  A
C797        H801   1.081       .  S
C798       C2205   1.400       .  A
C798       O2210   1.370       .  S
O800        H804   0.991       .  S
O802       C2206   1.370       .  S
O802        H803   0.992       .  S
C805        C806   1.424       .  A
C805        C810   1.434       .  A
C806        C807   1.404       .  A
C806        H811   1.069       .  S
C807        C808   1.408       .  A
C807        O812   1.373       .  S
C808        C809   1.407       .  A
C809        C810   1.397       .  A
C809        H813   1.079       .  S
C810        O814   1.377   1_455  S
O812        H816   0.992       .  S
O814        H815   0.993   1_655  S
C817        C818   1.387       .  A
C817        C822   1.402       .  A
C818        C819   1.402       .  A
C818        H823   1.084       .  S
C819        C820   1.435       .  A
C819        O824   1.363       .  S
C820        C821   1.419       .  A
C821        C822   1.397       .  A
C821        H825   1.075       .  S
C822        O826   1.372       .  S
O824        H828   0.992       .  S
O826        H827   0.992       .  S
C829        C830   1.418       .  A
C829        C834   1.421       .  A
C830        C831   1.406       .  A
C830        H835   1.078       .  S
C831        C832   1.407       .  A
C831        O836   1.371       .  S
C832        C833   1.406       .  A
C833        C834   1.406       .  A
C833        H837   1.083       .  S
C834        O838   1.371       .  S
O836        H840   0.992       .  S
O838        H839   0.992       .  S
C841        C842   1.395       .  A
C841        C846   1.401       .  A
C842        C843   1.398       .  A
C842       H2255   1.085   1_455  S
C843        C844   1.428       .  A
C843        O848   1.365       .  S
C844        C845   1.419       .  A
C845        C846   1.400       .  A
C845        H849   1.084       .  S
C846        O850   1.368       .  S
H847       C2250   1.085       .  S
O848       H2260   0.992       .  S
O850        H851   0.992       .  S
H852       O2256   0.992       .  S
C853        C854   1.392   1_455  A
C853        C858   1.406       .  A
C854        C855   1.408   1_655  A
C854        H859   1.084       .  S
C855        C856   1.442       .  A
C855        O860   1.364   1_455  S
C856        C857   1.420       .  A
C857        C858   1.400       .  A
C857        H861   1.083       .  S
C858        O862   1.372       .  S
O860       H2272   0.993       .  S
O862        H863   0.992       .  S
H864       O2268   0.993       .  S
C865        C866   1.424       .  A
C865        C870   1.430       .  A
C866        C867   1.406       .  A
C866        H871   1.079       .  S
C867        C868   1.403       .  A
C867        O872   1.372       .  S
C868        C869   1.399       .  A
C869        C870   1.398       .  A
C869        H873   1.084       .  S
C870        O874   1.377       .  S
O872        H876   0.992       .  S
O874        H875   0.993       .  S
C877        C878   1.424       .  A
C878        C879   1.409       .  A
C878        H883   1.077       .  S
C879        O884   1.371       .  S
C880        C881   1.412       .  A
C881        C882   1.397       .  A
C881        H885   1.082       .  S
C882        O886   1.375       .  S
O884        H888   0.992       .  S
O886        H887   0.992       .  S
C889        C890   1.401       .  A
C889        C894   1.407       .  A
C890        C891   1.411       .  A
C890        H895   1.084       .  S
C891        C892   1.426       .  A
C891        O896   1.369       .  S
C892        C893   1.419       .  A
C893        C894   1.405       .  A
C893        H897   1.081       .  S
C894        O898   1.372       .  S
O896        H900   0.992       .  S
O898        H899   0.992       .  S
C901        C902   1.408       .  A
C901        C906   1.438       .  A
C902        C903   1.409       .  A
C902        H907   1.082       .  S
C903        C904   1.426       .  A
C904        C905   1.394       .  A
C905        C906   1.397       .  A
C905        H909   1.070       .  S
C906        O910   1.375       .  S
O908        H912   0.991   1_545  S
O910        H911   0.993       .  S
C913        C914   1.389       .  A
C913        C918   1.405       .  A
C914        C915   1.395       .  A
C914        H919   1.084       .  S
C915        C916   1.431       .  A
C915        O920   1.374       .  S
C916        C917   1.408       .  A
C917        C918   1.397       .  A
C917        H921   1.081       .  S
C918        O922   1.369       .  S
O920        H924   0.992       .  S
O922        H923   0.992       .  S
C925        C926   1.414       .  A
C925        C930   1.418       .  A
C926        C927   1.395       .  A
C926        H931   1.082       .  S
C927        C928   1.420       .  A
C927       O1284   1.373       .  S
C928       C1085   1.563       .  S
C928        C929   1.414       .  A
C929        C930   1.407       .  A
C929        H933   1.083   1_565  S
C930        O934   1.368       .  S
O932       C1279   1.373       .  S
O932        H936   0.992       .  S
C937        C938   1.413       .  A
C937        C942   1.430       .  A
C938        C939   1.408       .  A
C938        H943   1.076       .  S
C939        C940   1.420       .  A
C940        C941   1.404       .  A
C941        C942   1.400       .  A
C941        H945   1.082       .  S
C942        O946   1.375       .  S
O944        H948   0.992       .  S
O946        H947   0.992       .  S
C949        C950   1.402       .  A
C949        C954   1.408       .  A
C950        C951   1.392       .  A
C950        H955   1.083       .  S
C951        C952   1.418       .  A
C951        O956   1.366       .  S
C952        C953   1.417       .  A
C953        C954   1.406       .  A
C953        H957   1.079       .  S
C954        O958   1.371       .  S
O956        H960   0.992       .  S
O958        H959   0.992       .  S
C961        C962   1.394       .  A
C961        C966   1.402       .  A
C962        C963   1.394       .  A
C962        H967   1.084       .  S
C963        C964   1.431       .  A
C963        O968   1.360       .  S
C964        C965   1.429       .  A
C965        C966   1.406       .  A
C965        H969   1.080       .  S
C966        O970   1.371       .  S
O968        H972   0.993       .  S
O970        H971   0.991       .  S
C973        C974   1.389       .  A
C973        C978   1.398       .  A
C974        C975   1.405       .  A
C974        H979   1.084       .  S
C975        C976   1.439       .  A
C975        O980   1.374       .  S
C976        C977   1.415       .  A
C977        C978   1.392       .  A
C977        H981   1.075       .  S
C978        O982   1.370       .  S
O980        H984   0.993       .  S
O982        H983   0.992       .  S
C985        C986   1.398       .  A
C985        C990   1.400       .  A
C986        C987   1.403       .  A
C986        H991   1.084       .  S
C987        C988   1.427       .  A
C987        O992   1.370       .  S
C988        C989   1.421       .  A
C989        C990   1.406       .  A
C989        H993   1.084       .  S
C990        O994   1.371       .  S
O992        H996   0.992       .  S
O994        H995   0.992       .  S
C997        C998   1.427       .  A
C997       C1002   1.426       .  A
C998        C999   1.409       .  A
C998       H1003   1.075       .  S
C999       C1000   1.401       .  A
C999       O1004   1.371       .  S
C1000      C1001   1.400       .  A
C1001      C1002   1.399       .  A
C1001      H1005   1.084       .  S
C1002      O1006   1.373       .  S
O1004      H1008   0.992       .  S
O1006      H1007   0.992       .  S
C1009      C1010   1.415       .  A
C1009      C1014   1.420       .  A
C1010      C1011   1.386       .  A
C1010      H1015   1.074       .  S
C1011      C1012   1.399       .  A
C1011      O1016   1.373       .  S
C1012      C1013   1.407       .  A
C1013      C1014   1.414       .  A
C1013      H1369   1.084   1_554  S
C1014      O1018   1.374       .  S
O1016      H1020   0.992       .  S
H1017      C1365   1.084       .  S
O1018      H1371   0.992   1_554  S
H1019      O1370   0.992       .  S
C1021      C1022   1.424       .  A
C1021      C1026   1.421       .  A
C1022      C1023   1.393       .  A
C1022      H1027   1.076       .  S
C1023      C1024   1.402       .  A
C1023      O1380   1.372       .  S
C1024      C1025   1.407       .  A
C1025      C1026   1.399       .  A
C1025      H1029   1.083       .  S
C1026      O1030   1.373       .  S
O1028      C1375   1.372   1_554  S
O1028      H1032   0.992       .  S
O1030      H1031   0.992       .  S
C1033      C1034   1.419       .  A
C1033      C1038   1.431       .  A
C1034      C1035   1.408       .  A
C1035      C1036   1.409       .  A
C1036      C1037   1.400       .  A
C1037      C1038   1.399       .  A
C1037      H1393   1.084   1_554  S
C1038      O1394   1.374   1_554  S
O1040      H1044   0.992       .  S
H1041      C1389   1.084       .  S
O1042      C1390   1.374       .  S
O1042      H1043   0.992       .  S
C1045      C1046   1.420       .  A
C1045      C1050   1.437       .  A
C1046      C1047   1.403       .  A
C1046      H1051   1.070       .  S
C1047      C1048   1.400       .  A
C1047      O1052   1.372       .  S
C1048      C1049   1.395       .  A
C1049      C1050   1.405       .  A
C1049      H2813   1.084       .  S
C1050      O2814   1.376       .  S
O1052      H1056   0.992       .  S
H1053      C2809   1.084   1_554  S
O1054      C2810   1.376   1_554  S
O1054      H1055   0.992       .  S
O1057     Cu1065   1.964   1_565  S
O1057      C1067   1.272       .  A
O1059     Cu1065   2.024       .  S
O1060     Cu2473   2.036   1_455  S
O1060      C1070   1.281   1_545  A
O1061     Cu2474   1.996       .  S
O1062     Cu1066   1.957       .  S
O1062      C1069   1.271       .  A
O1063      C1068   1.282       .  A
O1064     Cu1066   2.037       .  S
Cu1065     O2468   2.036       .  S
Cu1066     O2469   1.996       .  S
C1067      C1364   1.472       .  S
C1068      C1400   1.479       .  S
C1069      C1376   1.479       .  S
C1070      C1388   1.494       .  S
O1071     Cu1079   1.974       .  S
O1071      C1081   1.275       .  A
O1072     Cu1079   1.984       .  S
O1072      C1082   1.274       .  A
O1073     Cu1079   2.014       .  S
O1073      C1083   1.278       .  A
O1074     Cu1079   2.029       .  S
O1074      C1084   1.280       .  A
O1075     Cu1080   2.012       .  S
O1075      C1084   1.277       .  A
O1076     Cu1080   1.986       .  S
O1076      C1083   1.274       .  A
O1077     Cu1080   2.055       .  S
O1077      C1082   1.284       .  A
O1078     Cu1080   2.041       .  S
O1078      C1081   1.282       .  A
Cu1079    Cu1080   2.373       .  S
C1081      C1313   1.483       .  S
C1082      C1352   1.485       .  S
C1083      C1325   1.465       .  S
C1084      C1337   1.477       .  S
C1085      C1304   1.565       .  S
C1085      C1385   1.578       .  S
C1086      C1244   1.576       .  S
C1086      C1253   1.576       .  S
C1086      C1268   1.550       .  S
C1086      C1289   1.576       .  S
C1087      C1229   1.580       .  S
C1087      C1277   1.566       .  S
C1087      C1340   1.572       .  S
C1087      C1373   1.567       .  S
C1088      C1217   1.579       .  S
C1088      C1232   1.564       .  S
C1088      C1256   1.585       .  S
C1088      C1328   1.586       .  S
O1089     Cu1097   1.971       .  S
O1089      C1099   1.270       .  A
O1090     Cu2505   1.989       .  S
O1090      C1100   1.276       .  A
O1091     Cu1097   2.046       .  S
O1091      C1101   1.283       .  A
O1092      C1102   1.286       .  A
O1093      C1102   1.272       .  A
O1094     Cu1098   1.976       .  S
O1094      C1101   1.272       .  A
O1095     Cu2506   2.036       .  S
O1095      C1100   1.281       .  A
O1096     Cu1098   2.023       .  S
O1096      C1099   1.282       .  A
Cu1097     O2498   1.989   1_455  S
Cu1097    Cu1098   2.373       .  S
Cu1098     O2503   2.036   1_455  S
C1099      C1265   1.461       .  S
C1100      C1220   1.484       .  S
C1101      C1193   1.472       .  S
C1102      C1205   1.489       .  S
O1103     Cu1111   2.018       .  S
O1103      C1113   1.279       .  A
O1104     Cu1111   1.984       .  S
O1104      C1114   1.273       .  A
O1105     Cu1111   2.060       .  S
O1105      C1115   1.285       .  A
O1106     Cu1111   2.034       .  S
O1106      C1116   1.281       .  A
O1107     Cu1112   1.973       .  S
O1107      C1116   1.275       .  A
O1108     Cu1112   1.999       .  S
O1108      C1115   1.275       .  A
O1109     Cu1112   2.025       .  S
O1109      C1114   1.281       .  A
O1110     Cu1112   2.035       .  S
O1110      C1113   1.281       .  A
Cu1111    Cu1112   2.369       .  S
C1113      C1184   1.495       .  S
C1114      C1169   1.469       .  S
C1115      C1241   1.491       .  S
C1116      C1301   1.485       .  S
C1117      C1145   1.574       .  S
C1117      C1160   1.566       .  S
C1117      C1196   1.570       .  S
C1117      C1349   1.585       .  S
C1118      C2556   1.582       .  S
C1118      C1316   1.606       .  S
C1118      C1397   1.582       .  S
C1119      C1121   1.561       .  S
C1119      C1157   1.590       .  S
C1119      C1172   1.589       .  S
C1119      C1208   1.605       .  S
C1120      C1124   1.562       .  S
C1120      C1136   1.562       .  S
C1120      C1181   1.571       .  S
C1120      C1361   1.566       .  S
C1121      C2530   1.414   1_455  A
C1121      C2534   1.423       .  A
C1122      C2529   1.414       .  A
C1122      C1123   1.399       .  A
C1122      H2535   1.082       .  S
C1123      C1124   1.415       .  A
C1123      O1128   1.369       .  S
C1124      C1125   1.409       .  A
C1125      C1126   1.391       .  A
C1125      H1129   1.081       .  S
C1126      C2529   1.423       .  A
C1126      O2538   1.371       .  S
H1127      C2530   1.082       .  S
O1128      H1132   0.992       .  S
O1130      C2534   1.371       .  S
O1130      H2539   0.992       .  S
H1131      O2538   0.992       .  S
C1133      C1134   1.415       .  A
C1133      C1138   1.427       .  A
C1134      C1135   1.399       .  A
C1135      C1136   1.418       .  A
C1135      O1140   1.375       .  S
C1136      C1137   1.407       .  A
C1137      C1138   1.402       .  A
C1137      H1141   1.083       .  S
C1138      O1142   1.377       .  S
O1140      H1144   0.992       .  S
O1142      H1143   0.993       .  S
C1145      C1146   1.414       .  A
C1145      C1150   1.428   1_455  A
C1146      C1147   1.401       .  A
C1146      H1151   1.071       .  S
C1147      C1148   1.416   1_455  A
C1147      O1152   1.364       .  S
C1148      C2526   1.583       .  S
C1148      C2557   1.413       .  A
C1149      C2556   1.413       .  A
C1149      C2558   1.400       .  A
C1149      H1153   1.081       .  S
C1150      C2557   1.400       .  A
C1150      O2562   1.370       .  S
O1152      H1156   0.991       .  S
O1154      C2558   1.370       .  S
O1154      H1155   0.992       .  S
C1157      C1158   1.424       .  A
C1157      C1162   1.434       .  A
C1158      C1159   1.404       .  A
C1158      H1163   1.069       .  S
C1159      C1160   1.408       .  A
C1159      O1164   1.373       .  S
C1160      C1161   1.407       .  A
C1161      C1162   1.397       .  A
C1161      H1165   1.079       .  S
C1162      O1166   1.377   1_455  S
O1164      H1168   0.992       .  S
O1166      H1167   0.993   1_655  S
C1169      C1170   1.387       .  A
C1169      C1174   1.402       .  A
C1170      C1171   1.402       .  A
C1170      H1175   1.084       .  S
C1171      C1172   1.435       .  A
C1171      O1176   1.363       .  S
C1172      C1173   1.419       .  A
C1173      C1174   1.397       .  A
C1173      H1177   1.075       .  S
C1174      O1178   1.372       .  S
O1176      H1180   0.992       .  S
O1178      H1179   0.992       .  S
C1181      C1182   1.418       .  A
C1181      C1186   1.421       .  A
C1182      C1183   1.406       .  A
C1182      H1187   1.078       .  S
C1183      C1184   1.407       .  A
C1183      O1188   1.371       .  S
C1184      C1185   1.406       .  A
C1185      C1186   1.406       .  A
C1185      H1189   1.083       .  S
C1186      O1190   1.371       .  S
O1188      H1192   0.992       .  S
O1190      H1191   0.992       .  S
C1193      C1194   1.395       .  A
C1193      C1198   1.401       .  A
C1194      C1195   1.398       .  A
C1194      H2607   1.085   1_455  S
C1195      C1196   1.428       .  A
C1195      O1200   1.365       .  S
C1196      C1197   1.419       .  A
C1197      C1198   1.400       .  A
C1197      H1201   1.084       .  S
C1198      O1202   1.368       .  S
H1199      C2602   1.085       .  S
O1200      H2612   0.992       .  S
O1202      H1203   0.992       .  S
H1204      O2608   0.992       .  S
C1205      C1206   1.392   1_455  A
C1205      C1210   1.406       .  A
C1206      C1207   1.408   1_655  A
C1206      H1211   1.084       .  S
C1207      C1208   1.442       .  A
C1207      O1212   1.364   1_455  S
C1208      C1209   1.420       .  A
C1209      C1210   1.400       .  A
C1209      H1213   1.083       .  S
C1210      O1214   1.372       .  S
O1212      H2624   0.993       .  S
O1214      H1215   0.992       .  S
H1216      O2620   0.993       .  S
C1217      C1218   1.424       .  A
C1217      C1222   1.430       .  A
C1218      C1219   1.406       .  A
C1218      H1223   1.079       .  S
C1219      C1220   1.403       .  A
C1219      O1224   1.372       .  S
C1220      C1221   1.399       .  A
C1221      C1222   1.398       .  A
C1221      H1225   1.084       .  S
C1222      O1226   1.377       .  S
O1224      H1228   0.992       .  S
O1226      H1227   0.993       .  S
C1229      C1230   1.424       .  A
C1230      C1231   1.409       .  A
C1230      H1235   1.077       .  S
C1231      O1236   1.371       .  S
C1232      C1233   1.412       .  A
C1233      C1234   1.397       .  A
C1233      H1237   1.082       .  S
C1234      O1238   1.375       .  S
O1236      H1240   0.992       .  S
O1238      H1239   0.992       .  S
C1241      C1242   1.401       .  A
C1241      C1246   1.406       .  A
C1242      C1243   1.411       .  A
C1242      H1247   1.084       .  S
C1243      C1244   1.426       .  A
C1243      O1248   1.369       .  S
C1244      C1245   1.419       .  A
C1245      C1246   1.405       .  A
C1245      H1249   1.081       .  S
C1246      O1250   1.372       .  S
O1248      H1252   0.992       .  S
O1250      H1251   0.992       .  S
C1253      C1254   1.408       .  A
C1253      C1258   1.438       .  A
C1254      C1255   1.409       .  A
C1254      H1259   1.082       .  S
C1255      C1256   1.426       .  A
C1256      C1257   1.394       .  A
C1257      C1258   1.397       .  A
C1257      H1261   1.070       .  S
C1258      O1262   1.375       .  S
O1260      H1264   0.991   1_545  S
O1262      H1263   0.993       .  S
C1265      C1266   1.389       .  A
C1265      C1270   1.405       .  A
C1266      C1267   1.395       .  A
C1266      H1271   1.084       .  S
C1267      C1268   1.431       .  A
C1267      O1272   1.374       .  S
C1268      C1269   1.408       .  A
C1269      C1270   1.397       .  A
C1269      H1273   1.081       .  S
C1270      O1274   1.369       .  S
O1272      H1276   0.992       .  S
O1274      H1275   0.992       .  S
C1277      C1278   1.414       .  A
C1277      C1282   1.418       .  A
C1278      C1279   1.395   1_556  A
C1278      H1283   1.082       .  S
C1279      C1280   1.420       .  A
C1280      C1281   1.414       .  A
C1281      C1282   1.407   1_554  A
C1281      H1285   1.083   1_565  S
C1282      O1286   1.368       .  S
O1284      H1288   0.992       .  S
C1289      C1290   1.413       .  A
C1289      C1294   1.430       .  A
C1290      C1291   1.408       .  A
C1290      H1295   1.076       .  S
C1291      C1292   1.420       .  A
C1292      C1293   1.404       .  A
C1293      C1294   1.400       .  A
C1293      H1297   1.082       .  S
C1294      O1298   1.375       .  S
O1296      H1300   0.992       .  S
O1298      H1299   0.992       .  S
C1301      C1302   1.402       .  A
C1301      C1306   1.408       .  A
C1302      C1303   1.392       .  A
C1302      H1307   1.083       .  S
C1303      C1304   1.418       .  A
C1303      O1308   1.366       .  S
C1304      C1305   1.417       .  A
C1305      C1306   1.406       .  A
C1305      H1309   1.079       .  S
C1306      O1310   1.371       .  S
O1308      H1312   0.992       .  S
O1310      H1311   0.992       .  S
C1313      C1314   1.394       .  A
C1313      C1318   1.402       .  A
C1314      C1315   1.394       .  A
C1314      H1319   1.084       .  S
C1315      C1316   1.431       .  A
C1315      O1320   1.360       .  S
C1316      C1317   1.429       .  A
C1317      C1318   1.406       .  A
C1317      H1321   1.080       .  S
C1318      O1322   1.371       .  S
O1320      H1324   0.993       .  S
O1322      H1323   0.991       .  S
C1325      C1326   1.389       .  A
C1325      C1330   1.398       .  A
C1326      C1327   1.405       .  A
C1326      H1331   1.084       .  S
C1327      C1328   1.439       .  A
C1327      O1332   1.374       .  S
C1328      C1329   1.415       .  A
C1329      C1330   1.392       .  A
C1329      H1333   1.075       .  S
C1330      O1334   1.370       .  S
O1332      H1336   0.993       .  S
O1334      H1335   0.992       .  S
C1337      C1338   1.398       .  A
C1337      C1342   1.400       .  A
C1338      C1339   1.403       .  A
C1338      H1343   1.084       .  S
C1339      C1340   1.427       .  A
C1339      O1344   1.370       .  S
C1340      C1341   1.421       .  A
C1341      C1342   1.406       .  A
C1341      H1345   1.084       .  S
C1342      O1346   1.371       .  S
O1344      H1348   0.992       .  S
O1346      H1347   0.992       .  S
C1349      C1350   1.427       .  A
C1349      C1354   1.426       .  A
C1350      C1351   1.409       .  A
C1350      H1355   1.075       .  S
C1351      C1352   1.401       .  A
C1351      O1356   1.371       .  S
C1352      C1353   1.400       .  A
C1353      C1354   1.399       .  A
C1353      H1357   1.084       .  S
C1354      O1358   1.373       .  S
O1356      H1360   0.992       .  S
O1358      H1359   0.992       .  S
C1361      C1362   1.415       .  A
C1361      C1366   1.419       .  A
C1362      C1363   1.386       .  A
C1362      H1367   1.074       .  S
C1363      C1364   1.399       .  A
C1363      O1368   1.373       .  S
C1364      C1365   1.407       .  A
C1365      C1366   1.414       .  A
C1366      O1370   1.374       .  S
O1368      H1372   0.992       .  S
C1373      C1374   1.424       .  A
C1373      C1378   1.421       .  A
C1374      C1375   1.393       .  A
C1374      H1379   1.076   1_556  S
C1375      C1376   1.402       .  A
C1376      C1377   1.406       .  A
C1377      C1378   1.399       .  A
C1377      H1381   1.083       .  S
C1378      O1382   1.373       .  S
O1380      H1384   0.992       .  S
O1382      H1383   0.992       .  S
C1385      C1386   1.419       .  A
C1385      C1390   1.431       .  A
C1386      C1387   1.408       .  A
C1387      C1388   1.409       .  A
C1388      C1389   1.400       .  A
C1389      C1390   1.399       .  A
O1392      H1396   0.992       .  S
O1394      H1395   0.992       .  S
C1397      C1398   1.420       .  A
C1397      C1402   1.436       .  A
C1398      C1399   1.403       .  A
C1398      H1403   1.070       .  S
C1399      C1400   1.400       .  A
C1399      O1404   1.372       .  S
C1400      C1401   1.395       .  A
C1401      C1402   1.405       .  A
C1401      H2461   1.084   1_556  S
C1402      O2462   1.376   1_556  S
O1404      H1408   0.992       .  S
H1405      C2457   1.084       .  S
O1406      C2458   1.376       .  S
O1406      H1407   0.992       .  S
O1409     Cu1417   1.965       .  S
O1409      C1419   1.272       .  A
O1410     Cu2121   1.990       .  S
O1410      C1772   1.274   1_554  A
O1411     Cu1417   2.024       .  S
O1411      C1773   1.283   1_554  A
O1412      C1422   1.281       .  A
O1413      C1774   1.278       .  A
O1414     Cu1418   1.957   1_655  S
O1414      C1421   1.271       .  A
O1415     Cu2122   2.039   1_545  S
O1415      C1420   1.282   1_455  A
O1416     Cu1418   2.038   1_655  S
O1416      C1771   1.282       .  A
Cu1417     O2114   1.990       .  S
Cu1417    Cu1770   2.369   1_654  S
Cu1418     O2119   2.039       .  S
Cu1418    Cu1769   2.369   1_455  S
C1419      O1768   1.282   1_554  A
C1419      C1716   1.473       .  S
C1420      O1762   1.274       .  A
C1420      C1752   1.479       .  S
C1421      O1763   1.283       .  A
C1421      C1728   1.479       .  S
C1422      O1765   1.278   1_554  A
C1422      C1740   1.494       .  S
O1423     Cu1431   1.974       .  S
O1423      C1433   1.275       .  A
O1424     Cu1431   1.984       .  S
O1424      C1434   1.274       .  A
O1425     Cu1431   2.013       .  S
O1425      C1435   1.278       .  A
O1426     Cu1431   2.028       .  S
O1426      C1436   1.280       .  A
O1427     Cu1432   2.012       .  S
O1427      C1436   1.277       .  A
O1428     Cu1432   1.986       .  S
O1428      C1435   1.274       .  A
O1429     Cu1432   2.055       .  S
O1429      C1434   1.284       .  A
O1430     Cu1432   2.041       .  S
O1430      C1433   1.282       .  A
Cu1431    Cu1432   2.373       .  S
C1433      C1665   1.483       .  S
C1434      C1704   1.485       .  S
C1435      C1677   1.465       .  S
C1436      C1689   1.477       .  S
C1437      C1984   1.563       .  S
C1437      C2348   1.570       .  S
C1437      C1656   1.565       .  S
C1437      C1737   1.577       .  S
C1438      C1596   1.576       .  S
C1438      C1605   1.577       .  S
C1438      C1620   1.550       .  S
C1438      C1641   1.576       .  S
C1439      C1581   1.580       .  S
C1439      C1629   1.566       .  S
C1439      C1692   1.572       .  S
C1439      C1725   1.568       .  S
C1440      C1569   1.579       .  S
C1440      C1584   1.564       .  S
C1440      C1608   1.585       .  S
C1440      C1680   1.586       .  S
O1441     Cu1449   1.971       .  S
O1441      C1451   1.270       .  A
O1442      C1452   1.276       .  A
O1443     Cu1449   2.047       .  S
O1443      C1453   1.283       .  A
O1444     Cu2153   2.060       .  S
O1444      C1454   1.286       .  A
O1445     Cu2154   1.977       .  S
O1445      C1454   1.272       .  A
O1446     Cu1450   1.976       .  S
O1446      C1453   1.272       .  A
O1447      C1452   1.281       .  A
O1448     Cu1450   2.023       .  S
O1448      C1451   1.282       .  A
Cu1449     O2148   2.060   1_545  S
Cu1449    Cu1450   2.373       .  S
Cu1450     O2149   1.978   1_545  S
C1451      C1617   1.461       .  S
C1452      C1572   1.484       .  S
C1453      C1545   1.472       .  S
C1454      C1557   1.489       .  S
O1455     Cu1463   2.017       .  S
O1455      C1465   1.279       .  A
O1456     Cu1463   1.983       .  S
O1456      C1466   1.273       .  A
O1457     Cu1463   2.060       .  S
O1457      C1467   1.285       .  A
O1458     Cu1463   2.034       .  S
O1458      C1468   1.281       .  A
O1459     Cu1464   1.974       .  S
O1459      C1468   1.275       .  A
O1460     Cu1464   1.999       .  S
O1460      C1467   1.275       .  A
O1461     Cu1464   2.025       .  S
O1461      C1466   1.281       .  A
O1462     Cu1464   2.035       .  S
O1462      C1465   1.281       .  A
Cu1463    Cu1464   2.369       .  S
C1465      C1536   1.495       .  S
C1466      C1521   1.469       .  S
C1467      C1593   1.491       .  S
C1468      C1653   1.485       .  S
C1469      C1497   1.574       .  S
C1469      C1512   1.566       .  S
C1469      C1548   1.569       .  S
C1469      C1701   1.585       .  S
C1470      C1837   1.573       .  S
C1470      C1668   1.606       .  S
C1470      C1749   1.582       .  S
C1471      C1473   1.561       .  S
C1471      C1509   1.590       .  S
C1471      C1524   1.589       .  S
C1471      C1560   1.605       .  S
C1472      C1476   1.562       .  S
C1472      C1488   1.562       .  S
C1472      C1533   1.571       .  S
C1472      C1713   1.567       .  S
C1474      C1475   1.399       .  A
C1475      C1476   1.415       .  A
C1475      O1480   1.369       .  S
C1476      C1477   1.409   1_655  A
C1477      C1478   1.391       .  A
C1477      H1481   1.081       .  S
O1480      H1484   0.991       .  S
C1485      C1822   1.573       .  S
C1485      C1486   1.414       .  A
C1485      C1490   1.427   1_556  A
C1486      C1487   1.399   1_556  A
C1486      H1843   1.079       .  S
C1487      C1488   1.418       .  A
C1487      O1492   1.375       .  S
C1488      C1489   1.407       .  A
C1489      C1490   1.402       .  A
C1489      H1493   1.083       .  S
C1490      O1494   1.377       .  S
H1491      C1838   1.079       .  S
O1492      H1496   0.992   1_554  S
O1494      H1495   0.993       .  S
C1497      C1498   1.414       .  A
C1497      C1502   1.428       .  A
C1498      C1499   1.401       .  A
C1498      H1503   1.071       .  S
C1499      C1500   1.416       .  A
C1499      O1504   1.363       .  S
C1501      H1505   1.081       .  S
O1504      H1508   0.991       .  S
O1506      H1507   0.992       .  S
C1509      C1510   1.424       .  A
C1509      C1514   1.434       .  A
C1510      C1511   1.403       .  A
C1510      H1515   1.070       .  S
C1511      C1512   1.408       .  A
C1511      O1516   1.373       .  S
C1512      C1513   1.408       .  A
C1513      C1514   1.397       .  A
C1513      H1517   1.079       .  S
C1514      O1518   1.377       .  S
O1516      H1520   0.992       .  S
O1518      H1519   0.993       .  S
C1521      C1522   1.387       .  A
C1521      C1526   1.402       .  A
C1522      C1523   1.402       .  A
C1522      H1527   1.084       .  S
C1523      C1524   1.435       .  A
C1523      O1528   1.363       .  S
C1524      C1525   1.419       .  A
C1525      C1526   1.397       .  A
C1525      H1529   1.075       .  S
C1526      O1530   1.372       .  S
O1528      H1532   0.992       .  S
O1530      H1531   0.992       .  S
C1533      C1534   1.418       .  A
C1533      C1538   1.421       .  A
C1534      C1535   1.406       .  A
C1534      H1539   1.077       .  S
C1535      C1536   1.407       .  A
C1535      O1540   1.371       .  S
C1536      C1537   1.406       .  A
C1537      C1538   1.405       .  A
C1537      H1541   1.083       .  S
C1538      O1542   1.371       .  S
O1540      H1544   0.992       .  S
O1542      H1543   0.991       .  S
C1545      C1546   1.395       .  A
C1545      C1550   1.401       .  A
C1546      C1547   1.398       .  A
C1547      C1548   1.428       .  A
C1547      O1552   1.365       .  S
C1548      C1549   1.419       .  A
C1549      C1550   1.400       .  A
C1549      H1553   1.084       .  S
C1550      O1554   1.368       .  S
O1554      H1555   0.992       .  S
C1557      C1558   1.392       .  A
C1557      C1562   1.406       .  A
C1558      C1559   1.408       .  A
C1558      H1563   1.084       .  S
C1559      C1560   1.442       .  A
C1559      O1564   1.364       .  S
C1560      C1561   1.420       .  A
C1561      C1562   1.400       .  A
C1561      H1565   1.083       .  S
C1562      O1566   1.372       .  S
O1566      H1567   0.992       .  S
C1569      C1570   1.424       .  A
C1569      C1574   1.430       .  A
C1570      C1571   1.406       .  A
C1570      H1575   1.079   1_545  S
C1571      C1572   1.403       .  A
C1571      O1576   1.372   1_545  S
C1572      C1573   1.399       .  A
C1573      C1574   1.398       .  A
C1573      H1577   1.084       .  S
C1574      O1578   1.377       .  S
O1576      H1580   0.992       .  S
O1578      H1579   0.992       .  S
C1581      C1582   1.424       .  A
C1581      C2290   1.423       .  A
C1582      C1583   1.409       .  A
C1582      H1587   1.077       .  S
C1583      C2288   1.413       .  A
C1583      O1588   1.371       .  S
C1584      C2287   1.413   1_545  A
C1584      C1585   1.412       .  A
C1585      C1586   1.397       .  A
C1585      H1589   1.082       .  S
C1586      C2285   1.423   1_545  A
C1586      O1590   1.375       .  S
O1588      H1592   0.992       .  S
O1590      H1591   0.992       .  S
C1593      C1594   1.401       .  A
C1593      C1598   1.406       .  A
C1594      C1595   1.411       .  A
C1594      H1599   1.084       .  S
C1595      C1596   1.426       .  A
C1595      O1600   1.369       .  S
C1596      C1597   1.419       .  A
C1597      C1598   1.405       .  A
C1597      H1601   1.081       .  S
C1598      O1602   1.372       .  S
O1600      H1604   0.992       .  S
O1602      H1603   0.992       .  S
C1605      C1606   1.408       .  A
C1605      C1610   1.438       .  A
C1606      C1607   1.409       .  A
C1606      H1611   1.082       .  S
C1607      C1608   1.426       .  A
C1607      O2316   1.370       .  S
C1608      C1609   1.394       .  A
C1609      C1610   1.398       .  A
C1609      H1613   1.070       .  S
C1610      O1614   1.375       .  S
O1612      C2311   1.370       .  S
O1612      H1616   0.992       .  S
O1614      H1615   0.993       .  S
C1617      C1618   1.389       .  A
C1617      C1622   1.405       .  A
C1618      C1619   1.395       .  A
C1618      H1623   1.084   1_545  S
C1619      C1620   1.431       .  A
C1619      O1624   1.374   1_545  S
C1620      C1621   1.408       .  A
C1621      C1622   1.397       .  A
C1621      H1625   1.080       .  S
C1622      O1626   1.369       .  S
O1624      H1628   0.992       .  S
O1626      H1627   0.992       .  S
C1629      C1630   1.414       .  A
C1629      C1634   1.418       .  A
C1630      C1631   1.395       .  A
C1630      H1635   1.082       .  S
C1631      C1632   1.420       .  A
C1631      O1988   1.373       .  S
C1632      C1789   1.563       .  S
C1632      C1633   1.414       .  A
C1633      C1634   1.407       .  A
C1633      H1637   1.083       .  S
C1634      O1638   1.368       .  S
O1636      C1983   1.373       .  S
O1636      H1640   0.992       .  S
O1638      H2343   0.992       .  S
H1639      O2342   0.992       .  S
C1641      C1642   1.413       .  A
C1641      C1646   1.430       .  A
C1642      C1643   1.408   1_545  A
C1642      H1647   1.076   1_545  S
C1643      C1644   1.420       .  A
C1643      O2352   1.369       .  S
C1644      C2141   1.570       .  S
C1644      C1645   1.404   1_565  A
C1645      C1646   1.400       .  A
C1645      H1649   1.082       .  S
C1646      O1650   1.375       .  S
O1648      C2347   1.369       .  S
O1648      H1652   0.992       .  S
O1650      H1651   0.992       .  S
C1653      C1654   1.402       .  A
C1653      C1658   1.408       .  A
C1654      C1655   1.392       .  A
C1654      H1659   1.083       .  S
C1655      C1656   1.418       .  A
C1655      O1660   1.366       .  S
C1656      C1657   1.417       .  A
C1657      C1658   1.406       .  A
C1657      H1661   1.079       .  S
C1658      O1662   1.371       .  S
O1660      H1664   0.992       .  S
O1662      H1663   0.992       .  S
C1665      C1666   1.394       .  A
C1665      C1670   1.402       .  A
C1666      C1667   1.394       .  A
C1666      H1671   1.084       .  S
C1667      C1668   1.431       .  A
C1667      O1672   1.360       .  S
C1668      C1669   1.429       .  A
C1669      C1670   1.406       .  A
C1669      H1673   1.081       .  S
C1670      O1674   1.371       .  S
O1672      H1676   0.993       .  S
O1674      H1675   0.991       .  S
C1677      C1678   1.389       .  A
C1677      C1682   1.398       .  A
C1678      C1679   1.405       .  A
C1678      H1683   1.084       .  S
C1679      C1680   1.438       .  A
C1679      O1684   1.374       .  S
C1680      C1681   1.415       .  A
C1681      C1682   1.392       .  A
C1681      H1685   1.075       .  S
C1682      O1686   1.370       .  S
O1684      H1688   0.993       .  S
O1686      H1687   0.992       .  S
C1689      C1690   1.398       .  A
C1689      C1694   1.400       .  A
C1690      C1691   1.403       .  A
C1690      H1695   1.084       .  S
C1691      C1692   1.427       .  A
C1691      O1696   1.370       .  S
C1692      C1693   1.421       .  A
C1693      C1694   1.405       .  A
C1693      H1697   1.084       .  S
C1694      O1698   1.371       .  S
O1696      H1700   0.992       .  S
O1698      H1699   0.992       .  S
C1701      C1702   1.427       .  A
C1701      C1706   1.426       .  A
C1702      C1703   1.409       .  A
C1702      H1707   1.075       .  S
C1703      C1704   1.401       .  A
C1703      O1708   1.371       .  S
C1704      C1705   1.400       .  A
C1705      C1706   1.399       .  A
C1705      H1709   1.084       .  S
C1706      O1710   1.373       .  S
O1708      H1712   0.992       .  S
O1710      H1711   0.992       .  S
C1713      C1714   1.415       .  A
C1713      C1718   1.420       .  A
C1714      C1715   1.386       .  A
C1714      H1719   1.074       .  S
C1715      C1716   1.399       .  A
C1715      O1720   1.373       .  S
C1716      C1717   1.407       .  A
C1717      C1718   1.414       .  A
C1717      H2073   1.084   1_554  S
C1718      O1722   1.374       .  S
O1720      H1724   0.992   1_655  S
H1721      C2069   1.084       .  S
O1722      H2075   0.992   1_554  S
H1723      O2074   0.992       .  S
C1725      C1726   1.424       .  A
C1725      C1730   1.421       .  A
C1726      C1727   1.392       .  A
C1726      H1731   1.076       .  S
C1727      C1728   1.402       .  A
C1727      O2084   1.372       .  S
C1728      C1729   1.407       .  A
C1729      C1730   1.399       .  A
C1729      H1733   1.083       .  S
C1730      O1734   1.373       .  S
O1732      C2079   1.372   1_554  S
O1732      H1736   0.992       .  S
O1734      H1735   0.992       .  S
C1737      C1738   1.419       .  A
C1737      C1742   1.430       .  A
C1738      C1739   1.408       .  A
C1738      H2447   1.084       .  S
C1739      C1740   1.409       .  A
C1739      O2448   1.371       .  S
C1740      C1741   1.400       .  A
C1741      C1742   1.399       .  A
C1741      H2097   1.084   1_554  S
C1742      O2098   1.374   1_554  S
H1743      C2442   1.084       .  S
O1744      C2443   1.371       .  S
O1744      H1748   0.992   1_565  S
H1745      C2093   1.084       .  S
O1746      C2094   1.374       .  S
O1746      H1747   0.993       .  S
C1749      C1750   1.420       .  A
C1749      C1754   1.437   1_655  A
C1750      C1751   1.403       .  A
C1750      H1755   1.070       .  S
C1751      C1752   1.399       .  A
C1751      O1756   1.372       .  S
C1752      C1753   1.395   1_655  A
C1753      C1754   1.405       .  A
O1756      H1760   0.992       .  S
O1758      H1759   0.992       .  S
O1761     Cu1769   1.965       .  S
O1761      C1771   1.272       .  A
O1762     Cu2473   1.990       .  S
O1763     Cu1769   2.024       .  S
O1764      C1774   1.281       .  A
O1766     Cu1770   1.957   1_655  S
O1766      C1773   1.271       .  A
O1767     Cu2474   2.039   1_545  S
O1767      C1772   1.282   1_455  A
O1768     Cu1770   2.038   1_655  S
Cu1769     O2466   1.990       .  S
Cu1770     O2471   2.039       .  S
C1771      C2068   1.473       .  S
C1772      C2104   1.479       .  S
C1773      C2080   1.479       .  S
C1774      C2092   1.494       .  S
O1775     Cu1783   1.974       .  S
O1775      C1785   1.275       .  A
O1776     Cu1783   1.984       .  S
O1776      C1786   1.274       .  A
O1777     Cu1783   2.013       .  S
O1777      C1787   1.278       .  A
O1778     Cu1783   2.028       .  S
O1778      C1788   1.280       .  A
O1779     Cu1784   2.012       .  S
O1779      C1788   1.277       .  A
O1780     Cu1784   1.986       .  S
O1780      C1787   1.275       .  A
O1781     Cu1784   2.055       .  S
O1781      C1786   1.284       .  A
O1782     Cu1784   2.041       .  S
O1782      C1785   1.282       .  A
Cu1783    Cu1784   2.373       .  S
C1785      C2017   1.483       .  S
C1786      C2056   1.485       .  S
C1787      C2029   1.465       .  S
C1788      C2041   1.477       .  S
C1789      C2700   1.570       .  S
C1789      C2008   1.565       .  S
C1789      C2089   1.578       .  S
C1790      C1948   1.576       .  S
C1790      C1957   1.577       .  S
C1790      C1972   1.550       .  S
C1790      C1993   1.576       .  S
C1791      C1933   1.580       .  S
C1791      C1981   1.566       .  S
C1791      C2044   1.572       .  S
C1791      C2077   1.568       .  S
C1792      C1921   1.579       .  S
C1792      C1936   1.564       .  S
C1792      C1960   1.585       .  S
C1792      C2032   1.586       .  S
O1793     Cu1801   1.971       .  S
O1793      C1803   1.270       .  A
O1794      C1804   1.276       .  A
O1795     Cu1801   2.046       .  S
O1795      C1805   1.283       .  A
O1796     Cu2505   2.060       .  S
O1796      C1806   1.286       .  A
O1797     Cu2506   1.978       .  S
O1797      C1806   1.272       .  A
O1798     Cu1802   1.976       .  S
O1798      C1805   1.272       .  A
O1799      C1804   1.281       .  A
O1800     Cu1802   2.023       .  S
O1800      C1803   1.282       .  A
Cu1801     O2500   2.060   1_545  S
Cu1801    Cu1802   2.373       .  S
Cu1802     O2501   1.978   1_545  S
C1803      C1969   1.461       .  S
C1804      C1924   1.484       .  S
C1805      C1897   1.472       .  S
C1806      C1909   1.489       .  S
O1807     Cu1815   2.017       .  S
O1807      C1817   1.279       .  A
O1808     Cu1815   1.983       .  S
O1808      C1818   1.273       .  A
O1809     Cu1815   2.060       .  S
O1809      C1819   1.285       .  A
O1810     Cu1815   2.034       .  S
O1810      C1820   1.281       .  A
O1811     Cu1816   1.974       .  S
O1811      C1820   1.275       .  A
O1812     Cu1816   1.999       .  S
O1812      C1819   1.275       .  A
O1813     Cu1816   2.025       .  S
O1813      C1818   1.281       .  A
O1814     Cu1816   2.035       .  S
O1814      C1817   1.281       .  A
Cu1815    Cu1816   2.369       .  S
C1817      C1888   1.495       .  S
C1818      C1873   1.469       .  S
C1819      C1945   1.491       .  S
C1820      C2005   1.485       .  S
C1821      C1849   1.574       .  S
C1821      C1864   1.566       .  S
C1821      C1900   1.569       .  S
C1821      C2053   1.585       .  S
C1822      C2020   1.606       .  S
C1822      C2101   1.582       .  S
C1823      C1825   1.561       .  S
C1823      C1861   1.590       .  S
C1823      C1876   1.589       .  S
C1823      C1912   1.605       .  S
C1824      C1828   1.562       .  S
C1824      C1840   1.562       .  S
C1824      C1885   1.571       .  S
C1824      C2065   1.567       .  S
C1826      C1827   1.399       .  A
C1827      C1828   1.415       .  A
C1827      O1832   1.369       .  S
C1828      C1829   1.409   1_655  A
C1829      C1830   1.391       .  A
C1829      H1833   1.081       .  S
O1832      H1836   0.992       .  S
C1837      C1838   1.414       .  A
C1837      C1842   1.427       .  A
C1838      C1839   1.399       .  A
C1839      C1840   1.418       .  A
C1839      O1844   1.375       .  S
C1840      C1841   1.407       .  A
C1841      C1842   1.402       .  A
C1841      H1845   1.083       .  S
C1842      O1846   1.377       .  S
O1844      H1848   0.992       .  S
O1846      H1847   0.993       .  S
C1849      C1850   1.414       .  A
C1849      C1854   1.428       .  A
C1850      C1851   1.401       .  A
C1850      H1855   1.071       .  S
C1851      C1852   1.416       .  A
C1851      O1856   1.363       .  S
C1853      H1857   1.081       .  S
O1856      H1860   0.991       .  S
O1858      H1859   0.992       .  S
C1861      C1862   1.424       .  A
C1861      C1866   1.434       .  A
C1862      C1863   1.404       .  A
C1862      H1867   1.070       .  S
C1863      C1864   1.408       .  A
C1863      O1868   1.373       .  S
C1864      C1865   1.408       .  A
C1865      C1866   1.397       .  A
C1865      H1869   1.079       .  S
C1866      O1870   1.377       .  S
O1868      H1872   0.992       .  S
O1870      H1871   0.993       .  S
C1873      C1874   1.387       .  A
C1873      C1878   1.402       .  A
C1874      C1875   1.402       .  A
C1874      H1879   1.084       .  S
C1875      C1876   1.435       .  A
C1875      O1880   1.363       .  S
C1876      C1877   1.419       .  A
C1877      C1878   1.397       .  A
C1877      H1881   1.075       .  S
C1878      O1882   1.372       .  S
O1880      H1884   0.992       .  S
O1882      H1883   0.992       .  S
C1885      C1886   1.418       .  A
C1885      C1890   1.421       .  A
C1886      C1887   1.406       .  A
C1886      H1891   1.077       .  S
C1887      C1888   1.407       .  A
C1887      O1892   1.371       .  S
C1888      C1889   1.406       .  A
C1889      C1890   1.405       .  A
C1889      H1893   1.083       .  S
C1890      O1894   1.371       .  S
O1892      H1896   0.992       .  S
O1894      H1895   0.992       .  S
C1897      C1898   1.395       .  A
C1897      C1902   1.401       .  A
C1898      C1899   1.398       .  A
C1899      C1900   1.428       .  A
C1899      O1904   1.365       .  S
C1900      C1901   1.419       .  A
C1901      C1902   1.400       .  A
C1901      H1905   1.084       .  S
C1902      O1906   1.368       .  S
O1906      H1907   0.992       .  S
C1909      C1910   1.392       .  A
C1909      C1914   1.406       .  A
C1910      C1911   1.408       .  A
C1910      H1915   1.084       .  S
C1911      C1912   1.442       .  A
C1911      O1916   1.364       .  S
C1912      C1913   1.420       .  A
C1913      C1914   1.400       .  A
C1913      H1917   1.083       .  S
C1914      O1918   1.372       .  S
O1918      H1919   0.992       .  S
C1921      C1922   1.424       .  A
C1921      C1926   1.430       .  A
C1922      C1923   1.406       .  A
C1922      H1927   1.079   1_545  S
C1923      C1924   1.403       .  A
C1923      O1928   1.372   1_545  S
C1924      C1925   1.399       .  A
C1925      C1926   1.398       .  A
C1925      H1929   1.084       .  S
C1926      O1930   1.377       .  S
O1928      H1932   0.992       .  S
O1930      H1931   0.992       .  S
C1933      C1934   1.424       .  A
C1933      C2642   1.423       .  A
C1934      C1935   1.409       .  A
C1934      H1939   1.076       .  S
C1935      C2640   1.413       .  A
C1935      O1940   1.371       .  S
C1936      C2639   1.413   1_545  A
C1936      C1937   1.412       .  A
C1937      C1938   1.397       .  A
C1937      H1941   1.082       .  S
C1938      C2637   1.423   1_545  A
C1938      O1942   1.375       .  S
O1940      H1944   0.992       .  S
O1942      H1943   0.992       .  S
C1945      C1946   1.401       .  A
C1945      C1950   1.406       .  A
C1946      C1947   1.411       .  A
C1946      H1951   1.084       .  S
C1947      C1948   1.426       .  A
C1947      O1952   1.369       .  S
C1948      C1949   1.419       .  A
C1949      C1950   1.405       .  A
C1949      H1953   1.081       .  S
C1950      O1954   1.372       .  S
O1952      H1956   0.992       .  S
O1954      H1955   0.992       .  S
C1957      C1958   1.408       .  A
C1957      C1962   1.438       .  A
C1958      C1959   1.409       .  A
C1958      H1963   1.082       .  S
C1959      C1960   1.426       .  A
C1959      O2668   1.370       .  S
C1960      C1961   1.394       .  A
C1961      C1962   1.398       .  A
C1961      H1965   1.070       .  S
C1962      O1966   1.375       .  S
O1964      C2663   1.370       .  S
O1964      H1968   0.992       .  S
O1966      H1967   0.993       .  S
C1969      C1970   1.389       .  A
C1969      C1974   1.405       .  A
C1970      C1971   1.395       .  A
C1970      H1975   1.084   1_545  S
C1971      C1972   1.431       .  A
C1971      O1976   1.374   1_545  S
C1972      C1973   1.408       .  A
C1973      C1974   1.397       .  A
C1973      H1977   1.080       .  S
C1974      O1978   1.369       .  S
O1976      H1980   0.992       .  S
O1978      H1979   0.992       .  S
C1981      C1982   1.414       .  A
C1981      C1986   1.418       .  A
C1982      C1983   1.395   1_556  A
C1982      H1987   1.082       .  S
C1983      C1984   1.420       .  A
C1984      C1985   1.414       .  A
C1985      C1986   1.407   1_554  A
C1985      H1989   1.083       .  S
C1986      O1990   1.368       .  S
O1988      H1992   0.992       .  S
O1990      H2695   0.992       .  S
H1991      O2694   0.992       .  S
C1993      C1994   1.413       .  A
C1993      C1998   1.430       .  A
C1994      C1995   1.408   1_545  A
C1994      H1999   1.076   1_545  S
C1995      C1996   1.421       .  A
C1995      O2704   1.369       .  S
C1996      C2493   1.570       .  S
C1996      C1997   1.404   1_565  A
C1997      C1998   1.400       .  A
C1997      H2001   1.082       .  S
C1998      O2002   1.375       .  S
O2000      C2699   1.369       .  S
O2000      H2004   0.992       .  S
O2002      H2003   0.992       .  S
C2005      C2006   1.402       .  A
C2005      C2010   1.408       .  A
C2006      C2007   1.392       .  A
C2006      H2011   1.083       .  S
C2007      C2008   1.418       .  A
C2007      O2012   1.366       .  S
C2008      C2009   1.417       .  A
C2009      C2010   1.406       .  A
C2009      H2013   1.079       .  S
C2010      O2014   1.371       .  S
O2012      H2016   0.992       .  S
O2014      H2015   0.992       .  S
C2017      C2018   1.394       .  A
C2017      C2022   1.402       .  A
C2018      C2019   1.394       .  A
C2018      H2023   1.084       .  S
C2019      C2020   1.431       .  A
C2019      O2024   1.360       .  S
C2020      C2021   1.429       .  A
C2021      C2022   1.406       .  A
C2021      H2025   1.081       .  S
C2022      O2026   1.371       .  S
O2024      H2028   0.993       .  S
O2026      H2027   0.991       .  S
C2029      C2030   1.389       .  A
C2029      C2034   1.398       .  A
C2030      C2031   1.405       .  A
C2030      H2035   1.084       .  S
C2031      C2032   1.439       .  A
C2031      O2036   1.374       .  S
C2032      C2033   1.415       .  A
C2033      C2034   1.392       .  A
C2033      H2037   1.075       .  S
C2034      O2038   1.370       .  S
O2036      H2040   0.993       .  S
O2038      H2039   0.992       .  S
C2041      C2042   1.398       .  A
C2041      C2046   1.400       .  A
C2042      C2043   1.403       .  A
C2042      H2047   1.084       .  S
C2043      C2044   1.427       .  A
C2043      O2048   1.370       .  S
C2044      C2045   1.421       .  A
C2045      C2046   1.405       .  A
C2045      H2049   1.084       .  S
C2046      O2050   1.371       .  S
O2048      H2052   0.992       .  S
O2050      H2051   0.992       .  S
C2053      C2054   1.427       .  A
C2053      C2058   1.426       .  A
C2054      C2055   1.409       .  A
C2054      H2059   1.075       .  S
C2055      C2056   1.401       .  A
C2055      O2060   1.371       .  S
C2056      C2057   1.400       .  A
C2057      C2058   1.399       .  A
C2057      H2061   1.084       .  S
C2058      O2062   1.373       .  S
O2060      H2064   0.992       .  S
O2062      H2063   0.992       .  S
C2065      C2066   1.415       .  A
C2065      C2070   1.420       .  A
C2066      C2067   1.386       .  A
C2066      H2071   1.074       .  S
C2067      C2068   1.399       .  A
C2067      O2072   1.373       .  S
C2068      C2069   1.407       .  A
C2069      C2070   1.414       .  A
C2070      O2074   1.374       .  S
O2072      H2076   0.992   1_655  S
C2077      C2078   1.424       .  A
C2077      C2082   1.421       .  A
C2078      C2079   1.392       .  A
C2078      H2083   1.076   1_556  S
C2079      C2080   1.402       .  A
C2080      C2081   1.407       .  A
C2081      C2082   1.399       .  A
C2081      H2085   1.083       .  S
C2082      O2086   1.373       .  S
O2084      H2088   0.992       .  S
O2086      H2087   0.992       .  S
C2089      C2090   1.419       .  A
C2089      C2094   1.431       .  A
C2090      C2091   1.408       .  A
C2090      H2799   1.084       .  S
C2091      C2092   1.409       .  A
C2091      O2800   1.371       .  S
C2092      C2093   1.400       .  A
C2093      C2094   1.399       .  A
H2095      C2794   1.084       .  S
O2096      C2795   1.371       .  S
O2096      H2100   0.992   1_565  S
O2098      H2099   0.993       .  S
C2101      C2102   1.420       .  A
C2101      C2106   1.437   1_655  A
C2102      C2103   1.403       .  A
C2102      H2107   1.070       .  S
C2103      C2104   1.400       .  A
C2103      O2108   1.372       .  S
C2104      C2105   1.395   1_655  A
C2105      C2106   1.405       .  A
O2108      H2112   0.992       .  S
O2110      H2111   0.993       .  S
O2113     Cu2121   1.964   1_565  S
O2113      C2123   1.272       .  A
O2114      C2476   1.274   1_554  A
O2115     Cu2121   2.024       .  S
O2115      C2477   1.283   1_544  A
O2116      C2126   1.281   1_545  A
O2117      C2478   1.278       .  A
O2118     Cu2122   1.957   1_655  S
O2118      C2125   1.271       .  A
O2119      C2124   1.282   1_455  A
O2120     Cu2122   2.037   1_655  S
O2120      C2475   1.282       .  A
Cu2121    Cu2474   2.369   1_644  S
Cu2122    Cu2473   2.369   1_465  S
C2123      O2472   1.282   1_554  A
C2123      C2420   1.472       .  S
C2124      O2466   1.274       .  A
C2124      C2456   1.479       .  S
C2125      O2467   1.283   1_565  A
C2125      C2432   1.479       .  S
C2126      O2469   1.278   1_554  A
C2126      C2444   1.494       .  S
O2127     Cu2135   1.974       .  S
O2127      C2137   1.275       .  A
O2128     Cu2135   1.984       .  S
O2128      C2138   1.274       .  A
O2129     Cu2135   2.014       .  S
O2129      C2139   1.278       .  A
O2130     Cu2135   2.029       .  S
O2130      C2140   1.280       .  A
O2131     Cu2136   2.012       .  S
O2131      C2140   1.277       .  A
O2132     Cu2136   1.986       .  S
O2132      C2139   1.274       .  A
O2133     Cu2136   2.055       .  S
O2133      C2138   1.284       .  A
O2134     Cu2136   2.041       .  S
O2134      C2137   1.282       .  A
Cu2135    Cu2136   2.373       .  S
C2137      C2369   1.483       .  S
C2138      C2408   1.485       .  S
C2139      C2381   1.465       .  S
C2140      C2393   1.477       .  S
C2141      C2688   1.563       .  S
C2141      C2360   1.565       .  S
C2141      C2441   1.578       .  S
C2142      C2300   1.576       .  S
C2142      C2309   1.577       .  S
C2142      C2324   1.550       .  S
C2142      C2345   1.576       .  S
C2143      C2285   1.580       .  S
C2143      C2333   1.566       .  S
C2143      C2396   1.572       .  S
C2143      C2429   1.567       .  S
C2144      C2273   1.579       .  S
C2144      C2288   1.564       .  S
C2144      C2312   1.585       .  S
C2144      C2384   1.586       .  S
O2145     Cu2153   1.971       .  S
O2145      C2155   1.270       .  A
O2146      C2156   1.276       .  A
O2147     Cu2153   2.046       .  S
O2147      C2157   1.283       .  A
O2148      C2158   1.286       .  A
O2149      C2158   1.272       .  A
O2150     Cu2154   1.976       .  S
O2150      C2157   1.272       .  A
O2151      C2156   1.281       .  A
O2152     Cu2154   2.023       .  S
O2152      C2155   1.282       .  A
Cu2153    Cu2154   2.373       .  S
C2155      C2321   1.461       .  S
C2156      C2276   1.483       .  S
C2157      C2249   1.472       .  S
C2158      C2261   1.489       .  S
O2159     Cu2167   2.018       .  S
O2159      C2169   1.279       .  A
O2160     Cu2167   1.984       .  S
O2160      C2170   1.273       .  A
O2161     Cu2167   2.060       .  S
O2161      C2171   1.285       .  A
O2162     Cu2167   2.034       .  S
O2162      C2172   1.281       .  A
O2163     Cu2168   1.973       .  S
O2163      C2172   1.275       .  A
O2164     Cu2168   1.999       .  S
O2164      C2171   1.275       .  A
O2165     Cu2168   2.025       .  S
O2165      C2170   1.281       .  A
O2166     Cu2168   2.035       .  S
O2166      C2169   1.281       .  A
Cu2167    Cu2168   2.369       .  S
C2169      C2240   1.495       .  S
C2170      C2225   1.469       .  S
C2171      C2297   1.491       .  S
C2172      C2357   1.485       .  S
C2173      C2201   1.574       .  S
C2173      C2216   1.567       .  S
C2173      C2252   1.570       .  S
C2173      C2405   1.585       .  S
C2174      C2541   1.573       .  S
C2174      C2372   1.606       .  S
C2174      C2453   1.582       .  S
C2175      C2177   1.561       .  S
C2175      C2213   1.590       .  S
C2175      C2228   1.589       .  S
C2175      C2264   1.605       .  S
C2176      C2180   1.562       .  S
C2176      C2192   1.562       .  S
C2176      C2237   1.571       .  S
C2176      C2417   1.566       .  S
C2178      C2179   1.399       .  A
C2179      C2180   1.415       .  A
C2179      O2184   1.369       .  S
C2180      C2181   1.409   1_655  A
C2181      C2182   1.391       .  A
C2181      H2185   1.081       .  S
O2184      H2188   0.992       .  S
C2189      C2526   1.573       .  S
C2189      C2190   1.415       .  A
C2189      C2194   1.427   1_556  A
C2190      C2191   1.399   1_556  A
C2190      H2547   1.079       .  S
C2191      C2192   1.418       .  A
C2191      O2196   1.375       .  S
C2192      C2193   1.407       .  A
C2193      C2194   1.402       .  A
C2193      H2197   1.083       .  S
C2194      O2198   1.377       .  S
H2195      C2542   1.079       .  S
O2196      H2200   0.992   1_554  S
O2198      H2199   0.993       .  S
C2201      C2202   1.414       .  A
C2201      C2206   1.428       .  A
C2202      C2203   1.401       .  A
C2202      H2207   1.071       .  S
C2203      C2204   1.416       .  A
C2203      O2208   1.364       .  S
C2205      H2209   1.081       .  S
O2208      H2212   0.991       .  S
O2210      H2211   0.992       .  S
C2213      C2214   1.424       .  A
C2213      C2218   1.434       .  A
C2214      C2215   1.404       .  A
C2214      H2219   1.069       .  S
C2215      C2216   1.408       .  A
C2215      O2220   1.373       .  S
C2216      C2217   1.407       .  A
C2217      C2218   1.397       .  A
C2217      H2221   1.079       .  S
C2218      O2222   1.377       .  S
O2220      H2224   0.992       .  S
O2222      H2223   0.993       .  S
C2225      C2226   1.387       .  A
C2225      C2230   1.402       .  A
C2226      C2227   1.402       .  A
C2226      H2231   1.084       .  S
C2227      C2228   1.435       .  A
C2227      O2232   1.363       .  S
C2228      C2229   1.419       .  A
C2229      C2230   1.397       .  A
C2229      H2233   1.075       .  S
C2230      O2234   1.372       .  S
O2232      H2236   0.992       .  S
O2234      H2235   0.992       .  S
C2237      C2238   1.418       .  A
C2237      C2242   1.421       .  A
C2238      C2239   1.406       .  A
C2238      H2243   1.078       .  S
C2239      C2240   1.407       .  A
C2239      O2244   1.371       .  S
C2240      C2241   1.406       .  A
C2241      C2242   1.406       .  A
C2241      H2245   1.083       .  S
C2242      O2246   1.371       .  S
O2244      H2248   0.992       .  S
O2246      H2247   0.992       .  S
C2249      C2250   1.395       .  A
C2249      C2254   1.401       .  A
C2250      C2251   1.398       .  A
C2251      C2252   1.428       .  A
C2251      O2256   1.365       .  S
C2252      C2253   1.419       .  A
C2253      C2254   1.400       .  A
C2253      H2257   1.084       .  S
C2254      O2258   1.368       .  S
O2258      H2259   0.992       .  S
C2261      C2262   1.392       .  A
C2261      C2266   1.406       .  A
C2262      C2263   1.408       .  A
C2262      H2267   1.084       .  S
C2263      C2264   1.442       .  A
C2263      O2268   1.364       .  S
C2264      C2265   1.420       .  A
C2265      C2266   1.400       .  A
C2265      H2269   1.083       .  S
C2266      O2270   1.372       .  S
O2270      H2271   0.992       .  S
C2273      C2274   1.424       .  A
C2273      C2278   1.430       .  A
C2274      C2275   1.406       .  A
C2274      H2279   1.079       .  S
C2275      C2276   1.403       .  A
C2275      O2280   1.372       .  S
C2276      C2277   1.399       .  A
C2277      C2278   1.398       .  A
C2277      H2281   1.084       .  S
C2278      O2282   1.377       .  S
O2280      H2284   0.992       .  S
O2282      H2283   0.993       .  S
C2285      C2286   1.424       .  A
C2286      C2287   1.409       .  A
C2286      H2291   1.077       .  S
C2287      O2292   1.371       .  S
C2288      C2289   1.412       .  A
C2289      C2290   1.397       .  A
C2289      H2293   1.082       .  S
C2290      O2294   1.375       .  S
O2292      H2296   0.992       .  S
O2294      H2295   0.992       .  S
C2297      C2298   1.401       .  A
C2297      C2302   1.407       .  A
C2298      C2299   1.411       .  A
C2298      H2303   1.084       .  S
C2299      C2300   1.426       .  A
C2299      O2304   1.369       .  S
C2300      C2301   1.419       .  A
C2301      C2302   1.405       .  A
C2301      H2305   1.081       .  S
C2302      O2306   1.372       .  S
O2304      H2308   0.992       .  S
O2306      H2307   0.992       .  S
C2309      C2310   1.408       .  A
C2309      C2314   1.438       .  A
C2310      C2311   1.409       .  A
C2310      H2315   1.082       .  S
C2311      C2312   1.426       .  A
C2312      C2313   1.394       .  A
C2313      C2314   1.397       .  A
C2313      H2317   1.070       .  S
C2314      O2318   1.375       .  S
O2316      H2320   0.991   1_545  S
O2318      H2319   0.993       .  S
C2321      C2322   1.389       .  A
C2321      C2326   1.405       .  A
C2322      C2323   1.395       .  A
C2322      H2327   1.084       .  S
C2323      C2324   1.431       .  A
C2323      O2328   1.374       .  S
C2324      C2325   1.408       .  A
C2325      C2326   1.397       .  A
C2325      H2329   1.081       .  S
C2326      O2330   1.369       .  S
O2328      H2332   0.992       .  S
O2330      H2331   0.992       .  S
C2333      C2334   1.414       .  A
C2333      C2338   1.418       .  A
C2334      C2335   1.395       .  A
C2334      H2339   1.082       .  S
C2335      C2336   1.420       .  A
C2335      O2692   1.373       .  S
C2336      C2493   1.563       .  S
C2336      C2337   1.414       .  A
C2337      C2338   1.407       .  A
C2337      H2341   1.083   1_565  S
C2338      O2342   1.368       .  S
O2340      C2687   1.373       .  S
O2340      H2344   0.992       .  S
C2345      C2346   1.413       .  A
C2345      C2350   1.430       .  A
C2346      C2347   1.408       .  A
C2346      H2351   1.076       .  S
C2347      C2348   1.420       .  A
C2348      C2349   1.404       .  A
C2349      C2350   1.400       .  A
C2349      H2353   1.082       .  S
C2350      O2354   1.375       .  S
O2352      H2356   0.992       .  S
O2354      H2355   0.992       .  S
C2357      C2358   1.403       .  A
C2357      C2362   1.408       .  A
C2358      C2359   1.392       .  A
C2358      H2363   1.083       .  S
C2359      C2360   1.418       .  A
C2359      O2364   1.366       .  S
C2360      C2361   1.417       .  A
C2361      C2362   1.406       .  A
C2361      H2365   1.079       .  S
C2362      O2366   1.371       .  S
O2364      H2368   0.992       .  S
O2366      H2367   0.992       .  S
C2369      C2370   1.394       .  A
C2369      C2374   1.402       .  A
C2370      C2371   1.394       .  A
C2370      H2375   1.084       .  S
C2371      C2372   1.431       .  A
C2371      O2376   1.360       .  S
C2372      C2373   1.429       .  A
C2373      C2374   1.406       .  A
C2373      H2377   1.080       .  S
C2374      O2378   1.371       .  S
O2376      H2380   0.993       .  S
O2378      H2379   0.991       .  S
C2381      C2382   1.389       .  A
C2381      C2386   1.398       .  A
C2382      C2383   1.405       .  A
C2382      H2387   1.084       .  S
C2383      C2384   1.439       .  A
C2383      O2388   1.374       .  S
C2384      C2385   1.415       .  A
C2385      C2386   1.392       .  A
C2385      H2389   1.075       .  S
C2386      O2390   1.370       .  S
O2388      H2392   0.993       .  S
O2390      H2391   0.992       .  S
C2393      C2394   1.398       .  A
C2393      C2398   1.400       .  A
C2394      C2395   1.403       .  A
C2394      H2399   1.084       .  S
C2395      C2396   1.427       .  A
C2395      O2400   1.370       .  S
C2396      C2397   1.421       .  A
C2397      C2398   1.406       .  A
C2397      H2401   1.084       .  S
C2398      O2402   1.371       .  S
O2400      H2404   0.992       .  S
O2402      H2403   0.992       .  S
C2405      C2406   1.427       .  A
C2405      C2410   1.426       .  A
C2406      C2407   1.409       .  A
C2406      H2411   1.075       .  S
C2407      C2408   1.401       .  A
C2407      O2412   1.371       .  S
C2408      C2409   1.400       .  A
C2409      C2410   1.399       .  A
C2409      H2413   1.084       .  S
C2410      O2414   1.373       .  S
O2412      H2416   0.992       .  S
O2414      H2415   0.992       .  S
C2417      C2418   1.415       .  A
C2417      C2422   1.420       .  A
C2418      C2419   1.386       .  A
C2418      H2423   1.074       .  S
C2419      C2420   1.399       .  A
C2419      O2424   1.373   1_655  S
C2420      C2421   1.407       .  A
C2421      C2422   1.414       .  A
C2421      H2777   1.084   1_554  S
C2422      O2426   1.374       .  S
O2424      H2428   0.992       .  S
H2425      C2773   1.084       .  S
O2426      H2779   0.992   1_554  S
H2427      O2778   0.992       .  S
C2429      C2430   1.424       .  A
C2429      C2434   1.421       .  A
C2430      C2431   1.392       .  A
C2430      H2435   1.076       .  S
C2431      C2432   1.402       .  A
C2431      O2788   1.372       .  S
C2432      C2433   1.406       .  A
C2433      C2434   1.399       .  A
C2433      H2437   1.083       .  S
C2434      O2438   1.373       .  S
O2436      C2783   1.372   1_554  S
O2436      H2440   0.992       .  S
O2438      H2439   0.992       .  S
C2441      C2442   1.419       .  A
C2441      C2446   1.431       .  A
C2442      C2443   1.408       .  A
C2443      C2444   1.409       .  A
C2444      C2445   1.400       .  A
C2445      C2446   1.399       .  A
C2445      H2801   1.084   1_554  S
C2446      O2802   1.374   1_554  S
O2448      H2452   0.992       .  S
H2449      C2797   1.084       .  S
O2450      C2798   1.374       .  S
O2450      H2451   0.992       .  S
C2453      C2454   1.420       .  A
C2453      C2458   1.436   1_655  A
C2454      C2455   1.403       .  A
C2454      H2459   1.070       .  S
C2455      C2456   1.400       .  A
C2455      O2460   1.372       .  S
C2456      C2457   1.395   1_655  A
C2457      C2458   1.405       .  A
O2460      H2464   0.992       .  S
O2462      H2463   0.993       .  S
O2465     Cu2473   1.965   1_565  S
O2465      C2475   1.272       .  A
O2467     Cu2473   2.024       .  S
O2468      C2478   1.281   1_545  A
O2470     Cu2474   1.957   1_655  S
O2470      C2477   1.271       .  A
O2471      C2476   1.282   1_455  A
O2472     Cu2474   2.037   1_655  S
C2475      C2772   1.472       .  S
C2476      C2808   1.479       .  S
C2477      C2784   1.479       .  S
C2478      C2796   1.494       .  S
O2479     Cu2487   1.974       .  S
O2479      C2489   1.275       .  A
O2480     Cu2487   1.984       .  S
O2480      C2490   1.274       .  A
O2481     Cu2487   2.014       .  S
O2481      C2491   1.278       .  A
O2482     Cu2487   2.029       .  S
O2482      C2492   1.280       .  A
O2483     Cu2488   2.012       .  S
O2483      C2492   1.277       .  A
O2484     Cu2488   1.986       .  S
O2484      C2491   1.274       .  A
O2485     Cu2488   2.055       .  S
O2485      C2490   1.284       .  A
O2486     Cu2488   2.041       .  S
O2486      C2489   1.282       .  A
Cu2487    Cu2488   2.373       .  S
C2489      C2721   1.483       .  S
C2490      C2760   1.485       .  S
C2491      C2733   1.465       .  S
C2492      C2745   1.477       .  S
C2493      C2712   1.565       .  S
C2493      C2793   1.578       .  S
C2494      C2652   1.576       .  S
C2494      C2661   1.577       .  S
C2494      C2676   1.550       .  S
C2494      C2697   1.576       .  S
C2495      C2637   1.580       .  S
C2495      C2685   1.566       .  S
C2495      C2748   1.572       .  S
C2495      C2781   1.567       .  S
C2496      C2625   1.579       .  S
C2496      C2640   1.564       .  S
C2496      C2664   1.585       .  S
C2496      C2736   1.586       .  S
O2497     Cu2505   1.971       .  S
O2497      C2507   1.270       .  A
O2498      C2508   1.276       .  A
O2499     Cu2505   2.047       .  S
O2499      C2509   1.283       .  A
O2500      C2510   1.286       .  A
O2501      C2510   1.272       .  A
O2502     Cu2506   1.976       .  S
O2502      C2509   1.272       .  A
O2503      C2508   1.281       .  A
O2504     Cu2506   2.023       .  S
O2504      C2507   1.282       .  A
Cu2505    Cu2506   2.373       .  S
C2507      C2673   1.461       .  S
C2508      C2628   1.483       .  S
C2509      C2601   1.472       .  S
C2510      C2613   1.489       .  S
O2511     Cu2519   2.018       .  S
O2511      C2521   1.279       .  A
O2512     Cu2519   1.984       .  S
O2512      C2522   1.273       .  A
O2513     Cu2519   2.060       .  S
O2513      C2523   1.285       .  A
O2514     Cu2519   2.034       .  S
O2514      C2524   1.281       .  A
O2515     Cu2520   1.973       .  S
O2515      C2524   1.275       .  A
O2516     Cu2520   1.999       .  S
O2516      C2523   1.275       .  A
O2517     Cu2520   2.025       .  S
O2517      C2522   1.281       .  A
O2518     Cu2520   2.035       .  S
O2518      C2521   1.281       .  A
Cu2519    Cu2520   2.369       .  S
C2521      C2592   1.495       .  S
C2522      C2577   1.469       .  S
C2523      C2649   1.491       .  S
C2524      C2709   1.485       .  S
C2525      C2553   1.574       .  S
C2525      C2568   1.567       .  S
C2525      C2604   1.570       .  S
C2525      C2757   1.585       .  S
C2526      C2724   1.606       .  S
C2526      C2805   1.582       .  S
C2527      C2529   1.561       .  S
C2527      C2565   1.590       .  S
C2527      C2580   1.589       .  S
C2527      C2616   1.605       .  S
C2528      C2532   1.562       .  S
C2528      C2544   1.562       .  S
C2528      C2589   1.571       .  S
C2528      C2769   1.566       .  S
C2530      C2531   1.399       .  A
C2531      C2532   1.415       .  A
C2531      O2536   1.369       .  S
C2532      C2533   1.409   1_655  A
C2533      C2534   1.391       .  A
C2533      H2537   1.081       .  S
O2536      H2540   0.992       .  S
C2541      C2542   1.415       .  A
C2541      C2546   1.427       .  A
C2542      C2543   1.399       .  A
C2543      C2544   1.418       .  A
C2543      O2548   1.375       .  S
C2544      C2545   1.407       .  A
C2545      C2546   1.402       .  A
C2545      H2549   1.083       .  S
C2546      O2550   1.377       .  S
O2548      H2552   0.992       .  S
O2550      H2551   0.993       .  S
C2553      C2554   1.414       .  A
C2553      C2558   1.428       .  A
C2554      C2555   1.401       .  A
C2554      H2559   1.071       .  S
C2555      C2556   1.416       .  A
C2555      O2560   1.364       .  S
C2557      H2561   1.081       .  S
O2560      H2564   0.991       .  S
O2562      H2563   0.992       .  S
C2565      C2566   1.424       .  A
C2565      C2570   1.434       .  A
C2566      C2567   1.404       .  A
C2566      H2571   1.069       .  S
C2567      C2568   1.408       .  A
C2567      O2572   1.373       .  S
C2568      C2569   1.407       .  A
C2569      C2570   1.397       .  A
C2569      H2573   1.079       .  S
C2570      O2574   1.377       .  S
O2572      H2576   0.992       .  S
O2574      H2575   0.993       .  S
C2577      C2578   1.387       .  A
C2577      C2582   1.402       .  A
C2578      C2579   1.402       .  A
C2578      H2583   1.084       .  S
C2579      C2580   1.435       .  A
C2579      O2584   1.363       .  S
C2580      C2581   1.419       .  A
C2581      C2582   1.397       .  A
C2581      H2585   1.075       .  S
C2582      O2586   1.372       .  S
O2584      H2588   0.992       .  S
O2586      H2587   0.992       .  S
C2589      C2590   1.418       .  A
C2589      C2594   1.421       .  A
C2590      C2591   1.406       .  A
C2590      H2595   1.078       .  S
C2591      C2592   1.407       .  A
C2591      O2596   1.371       .  S
C2592      C2593   1.406       .  A
C2593      C2594   1.406       .  A
C2593      H2597   1.083       .  S
C2594      O2598   1.371       .  S
O2596      H2600   0.992       .  S
O2598      H2599   0.992       .  S
C2601      C2602   1.395       .  A
C2601      C2606   1.401       .  A
C2602      C2603   1.398       .  A
C2603      C2604   1.428       .  A
C2603      O2608   1.365       .  S
C2604      C2605   1.419       .  A
C2605      C2606   1.400       .  A
C2605      H2609   1.084       .  S
C2606      O2610   1.368       .  S
O2610      H2611   0.992       .  S
C2613      C2614   1.392       .  A
C2613      C2618   1.406       .  A
C2614      C2615   1.408       .  A
C2614      H2619   1.084       .  S
C2615      C2616   1.442       .  A
C2615      O2620   1.364       .  S
C2616      C2617   1.420       .  A
C2617      C2618   1.400       .  A
C2617      H2621   1.083       .  S
C2618      O2622   1.372       .  S
O2622      H2623   0.991       .  S
C2625      C2626   1.424       .  A
C2625      C2630   1.430       .  A
C2626      C2627   1.406       .  A
C2626      H2631   1.079       .  S
C2627      C2628   1.403       .  A
C2627      O2632   1.372       .  S
C2628      C2629   1.399       .  A
C2629      C2630   1.398       .  A
C2629      H2633   1.084       .  S
C2630      O2634   1.377       .  S
O2632      H2636   0.992       .  S
O2634      H2635   0.993       .  S
C2637      C2638   1.424       .  A
C2638      C2639   1.409       .  A
C2638      H2643   1.077       .  S
C2639      O2644   1.371       .  S
C2640      C2641   1.412       .  A
C2641      C2642   1.397       .  A
C2641      H2645   1.082       .  S
C2642      O2646   1.375       .  S
O2644      H2648   0.992       .  S
O2646      H2647   0.992       .  S
C2649      C2650   1.401       .  A
C2649      C2654   1.407       .  A
C2650      C2651   1.411       .  A
C2650      H2655   1.084       .  S
C2651      C2652   1.426       .  A
C2651      O2656   1.369       .  S
C2652      C2653   1.419       .  A
C2653      C2654   1.405       .  A
C2653      H2657   1.081       .  S
C2654      O2658   1.372       .  S
O2656      H2660   0.992       .  S
O2658      H2659   0.992       .  S
C2661      C2662   1.408       .  A
C2661      C2666   1.438       .  A
C2662      C2663   1.409       .  A
C2662      H2667   1.082       .  S
C2663      C2664   1.426       .  A
C2664      C2665   1.394       .  A
C2665      C2666   1.397       .  A
C2665      H2669   1.070       .  S
C2666      O2670   1.375       .  S
O2668      H2672   0.991   1_545  S
O2670      H2671   0.993       .  S
C2673      C2674   1.389       .  A
C2673      C2678   1.405       .  A
C2674      C2675   1.395       .  A
C2674      H2679   1.084       .  S
C2675      C2676   1.431       .  A
C2675      O2680   1.374       .  S
C2676      C2677   1.408       .  A
C2677      C2678   1.397       .  A
C2677      H2681   1.081       .  S
C2678      O2682   1.369       .  S
O2680      H2684   0.992       .  S
O2682      H2683   0.992       .  S
C2685      C2686   1.414       .  A
C2685      C2690   1.418       .  A
C2686      C2687   1.395   1_556  A
C2686      H2691   1.082       .  S
C2687      C2688   1.420       .  A
C2688      C2689   1.414       .  A
C2689      C2690   1.407   1_554  A
C2689      H2693   1.083   1_565  S
C2690      O2694   1.368       .  S
O2692      H2696   0.992       .  S
C2697      C2698   1.413       .  A
C2697      C2702   1.430       .  A
C2698      C2699   1.408       .  A
C2698      H2703   1.076       .  S
C2699      C2700   1.420       .  A
C2700      C2701   1.404       .  A
C2701      C2702   1.400       .  A
C2701      H2705   1.082       .  S
C2702      O2706   1.375       .  S
O2704      H2708   0.992       .  S
O2706      H2707   0.992       .  S
C2709      C2710   1.403       .  A
C2709      C2714   1.408       .  A
C2710      C2711   1.392       .  A
C2710      H2715   1.083       .  S
C2711      C2712   1.418       .  A
C2711      O2716   1.366       .  S
C2712      C2713   1.417       .  A
C2713      C2714   1.406       .  A
C2713      H2717   1.079       .  S
C2714      O2718   1.371       .  S
O2716      H2720   0.992       .  S
O2718      H2719   0.992       .  S
C2721      C2722   1.394       .  A
C2721      C2726   1.402       .  A
C2722      C2723   1.394       .  A
C2722      H2727   1.084       .  S
C2723      C2724   1.431       .  A
C2723      O2728   1.360       .  S
C2724      C2725   1.429       .  A
C2725      C2726   1.406       .  A
C2725      H2729   1.080       .  S
C2726      O2730   1.371       .  S
O2728      H2732   0.993       .  S
O2730      H2731   0.991       .  S
C2733      C2734   1.389       .  A
C2733      C2738   1.398       .  A
C2734      C2735   1.405       .  A
C2734      H2739   1.084       .  S
C2735      C2736   1.439       .  A
C2735      O2740   1.374       .  S
C2736      C2737   1.415       .  A
C2737      C2738   1.392       .  A
C2737      H2741   1.075       .  S
C2738      O2742   1.370       .  S
O2740      H2744   0.993       .  S
O2742      H2743   0.992       .  S
C2745      C2746   1.398       .  A
C2745      C2750   1.400       .  A
C2746      C2747   1.403       .  A
C2746      H2751   1.084       .  S
C2747      C2748   1.427       .  A
C2747      O2752   1.370       .  S
C2748      C2749   1.421       .  A
C2749      C2750   1.406       .  A
C2749      H2753   1.084       .  S
C2750      O2754   1.371       .  S
O2752      H2756   0.992       .  S
O2754      H2755   0.992       .  S
C2757      C2758   1.427       .  A
C2757      C2762   1.426       .  A
C2758      C2759   1.409       .  A
C2758      H2763   1.075       .  S
C2759      C2760   1.401       .  A
C2759      O2764   1.371       .  S
C2760      C2761   1.400       .  A
C2761      C2762   1.399       .  A
C2761      H2765   1.084       .  S
C2762      O2766   1.373       .  S
O2764      H2768   0.992       .  S
O2766      H2767   0.992       .  S
C2769      C2770   1.415       .  A
C2769      C2774   1.420       .  A
C2770      C2771   1.386       .  A
C2770      H2775   1.074       .  S
C2771      C2772   1.399       .  A
C2771      O2776   1.373   1_655  S
C2772      C2773   1.407       .  A
C2773      C2774   1.414       .  A
C2774      O2778   1.374       .  S
O2776      H2780   0.992       .  S
C2781      C2782   1.424       .  A
C2781      C2786   1.421       .  A
C2782      C2783   1.393       .  A
C2782      H2787   1.076   1_556  S
C2783      C2784   1.402       .  A
C2784      C2785   1.407       .  A
C2785      C2786   1.399       .  A
C2785      H2789   1.083       .  S
C2786      O2790   1.373       .  S
O2788      H2792   0.992       .  S
O2790      H2791   0.992       .  S
C2793      C2794   1.419       .  A
C2793      C2798   1.431       .  A
C2794      C2795   1.408       .  A
C2795      C2796   1.409       .  A
C2796      C2797   1.400       .  A
C2797      C2798   1.399       .  A
O2800      H2804   0.992       .  S
O2802      H2803   0.992       .  S
C2805      C2806   1.420       .  A
C2805      C2810   1.436   1_655  A
C2806      C2807   1.403       .  A
C2806      H2811   1.070       .  S
C2807      C2808   1.400       .  A
C2807      O2812   1.372       .  S
C2808      C2809   1.395   1_655  A
C2809      C2810   1.405       .  A
O2812      H2816   0.992       .  S
O2814      H2815   0.992       .  S
