geometry optimzed in LAMMPS
_audit_creation_date              2020-11-30 
_audit_creation_method            'lammps2cif' 
_symmetry_space_group_name_H-M    'P1' 
_symmetry_Int_Tables_number       1 
_symmetry_cell_setting            triclinic 
loop_ 
_symmetry_equiv_pos_as_xyz 
  x,y,z 
_cell_length_a                    34.86537173 
_cell_length_b                    34.663719213238004 
_cell_length_c                    35.37034894568987 
_cell_angle_alpha                 89.94310427367499 
_cell_angle_beta                  89.95959515885174 
_cell_angle_gamma                 120.25497913087318 
loop_ 
_atom_site_label 
_atom_site_type_symbol 
_atom_site_fract_x 
_atom_site_fract_y 
_atom_site_fract_z 
_atom_site_charge 
C1          C  0.33685512  0.67032805  0.95704923     0.45800
H2          H  0.34122062  0.67383056  0.92598261    -0.03200
C3          C  0.32942831  0.66300271  0.03031150     0.45900
H4          H  0.32576517  0.65905126  0.06144131    -0.03200
C5          C  0.38015323  0.68096278  0.97725880    -0.16900
C6          C  0.32208882  0.70120079  0.97527410    -0.16600
C7          C  0.30229382  0.62303873  0.97030736    -0.17000
C8          C  0.37614790  0.67646647  0.01594049    -0.17000
C9          C  0.31990114  0.69861634  0.01419231    -0.16600
C10         C  0.29790442  0.61951237  0.00910503    -0.16900
C11         C  0.65956427  0.32879161  0.03620932     0.45800
H12         H  0.65922481  0.32920041  0.06761797    -0.03200
C13         C  0.66129439  0.32817248  0.96253614     0.45900
H14         H  0.66243427  0.32792737  0.93114520    -0.03200
C15         C  0.67465480  0.29746160  0.01987588    -0.16900
C16         C  0.61401240  0.31344738  0.01804830    -0.16600
C17         C  0.69096856  0.37487517  0.01862743    -0.17000
C18         C  0.67512819  0.29687950  0.98103101    -0.17000
C19         C  0.61508849  0.31440727  0.97908862    -0.16600
C20         C  0.69280994  0.37422949  0.97980424    -0.16900
C21         C  0.99529329  0.95591080  0.25206956     0.02700
C22         C  0.95496429  0.95684127  0.25123278     0.02700
C23         C  0.95627013  0.99848305  0.25185981     0.02700
C24         C  0.99772673  0.03929429  0.25281263     0.02700
C25         C  0.03816578  0.03839948  0.25333363     0.02700
C26         C  0.03681615  0.99660997  0.25267542     0.02700
N27         N  0.68889382  0.94333602  0.27623050    -0.26900
N28         N  0.71474962  0.93418853  0.29716307    -0.34800
C29         C  0.69018670  0.90623451  0.32521467     0.01400
C30         C  0.64685219  0.89703570  0.32124405     0.07400
C31         C  0.64735532  0.92131003  0.29008817    -0.05700
H32         H  0.70282671  0.89337753  0.34673942     0.08100
H33         H  0.61981709  0.92379240  0.27886770     0.09300
Cu34       Cu  0.78201754  0.95983020  0.28559260     0.44200
Cu35       Cu  0.71102124  0.98764841  0.23130473     0.42000
Cu36       Cu  0.82535475  0.03704269  0.20543630     0.43900
N37         N  0.84589873  0.98592456  0.26347091    -0.34300
N38         N  0.86065781  0.01253146  0.23360227    -0.28600
C39         C  0.90173123  0.02097846  0.22498975    -0.04700
C40         C  0.91389828  0.99922430  0.25093331     0.07600
C41         C  0.87766226  0.97731822  0.27494886     0.01400
H42         H  0.92131204  0.04145344  0.20149471     0.09000
H43         H  0.87436867  0.95606095  0.29861152     0.08100
N44         N  0.78375165  0.05747376  0.18282525    -0.35800
N45         N  0.74135113  0.03870624  0.19211828    -0.27900
C46         C  0.72363525  0.06054444  0.17469209    -0.03200
C47         C  0.75644941  0.09445946  0.15330389     0.05400
C48         C  0.79424769  0.09186772  0.15919359     0.03500
H49         H  0.68986713  0.05335962  0.17845444     0.08600
H50         H  0.82716567  0.11418746  0.14824300     0.07500
N51         N  0.30094446  0.04799701  0.28699633    -0.26900
N52         N  0.27443251  0.05854947  0.30529191    -0.34800
C53         C  0.29858971  0.09081455  0.33063463     0.01400
C54         C  0.34242696  0.10135279  0.32758071     0.07400
C55         C  0.34256779  0.07325632  0.29995260    -0.05700
H56         H  0.28550947  0.10636984  0.34902927     0.08100
H57         H  0.37098148  0.07168614  0.28969235     0.09300
Cu58       Cu  0.20762343  0.03085331  0.29182656     0.44200
Cu59       Cu  0.27995123  0.00075517  0.24442429     0.42000
Cu60       Cu  0.16833814  0.95530721  0.20991952     0.43900
N61         N  0.14545339  0.00595078  0.26714912    -0.34300
N62         N  0.13204967  0.98061033  0.23651894    -0.28600
C63         C  0.09177001  0.97367199  0.22656189    -0.04700
C64         C  0.07897344  0.99523599  0.25234171     0.07600
C65         C  0.11379016  0.01507106  0.27777538     0.01400
H66         H  0.07302576  0.95419015  0.20241481     0.09000
H67         H  0.11627851  0.03537051  0.30188822     0.08100
N68         N  0.21127671  0.93366584  0.19127939    -0.35800
N69         N  0.25231316  0.95097895  0.20398042    -0.27900
C70         C  0.27116577  0.92922233  0.18840651    -0.03200
C71         C  0.24075367  0.89643071  0.16451770     0.05400
C72         C  0.20291999  0.90011145  0.16728243     0.03500
H73         H  0.30441495  0.93617458  0.19468504     0.08600
H74         H  0.17090516  0.87868450  0.15453236     0.07500
N75         N  0.24475153  0.30950126  0.28592275    -0.26900
N76         N  0.20689635  0.28220464  0.30321244    -0.34800
C77         C  0.19744069  0.30592565  0.32779922     0.01400
C78         C  0.23108318  0.35012690  0.32588832     0.07400
C79         C  0.26026270  0.35123172  0.29888430    -0.05700
H80         H  0.16852256  0.29200220  0.34596769     0.08100
H81         H  0.29113855  0.38007617  0.29003607     0.09300
Cu82       Cu  0.16988697  0.21400999  0.29212248     0.44200
Cu83       Cu  0.27530206  0.28877730  0.24710635     0.42000
Cu84       Cu  0.21532862  0.17244762  0.22067985     0.43900
N85         N  0.13571958  0.14952464  0.27024137    -0.34300
N86         N  0.15107422  0.13535901  0.24259811    -0.28600
C87         C  0.11904474  0.09420235  0.23216343    -0.04700
C88         C  0.08192984  0.08124704  0.25483094     0.07600
C89         C  0.09406387  0.11728089  0.27878048     0.01400
H90         H  0.12249463  0.07510675  0.20961476     0.09000
H91         H  0.07365794  0.12029182  0.30028330     0.08100
N92         N  0.28041582  0.21679737  0.20350307    -0.35800
N93         N  0.30169819  0.25969813  0.21238775    -0.27900
C94         C  0.34211893  0.27981672  0.19611762    -0.03200
C95         C  0.34679895  0.24799502  0.17647101     0.05400
C96         C  0.30707204  0.20840744  0.18165219     0.03500
H97         H  0.36639399  0.31498426  0.19855231     0.08600
H98         H  0.29799235  0.17611001  0.16990867     0.07500
N99         N  0.03741944  0.29765856  0.19453434    -0.26900
N100        N  0.05784649  0.27529494  0.18653535    -0.34800
C101        C  0.09310097  0.30077010  0.16428087     0.01400
C102        C  0.09461339  0.34099053  0.15754835     0.07400
C103        C  0.05892434  0.33778012  0.17752438    -0.05700
H104        H  0.11661984  0.29114052  0.15509490     0.08100
H105        H  0.04945920  0.36300971  0.17980001     0.09300
Cu106      Cu  0.03721930  0.21173920  0.20768860     0.44200
Cu107      Cu  0.98305796  0.27392868  0.23024086     0.42000
Cu108      Cu  0.95321730  0.17253789  0.28221028     0.43900
N109        N  0.01199559  0.15030305  0.23475547    -0.34300
N110        N  0.98335219  0.13703424  0.26312582    -0.28600
C111        C  0.97493488  0.09645250  0.27471073    -0.04700
C112        C  0.99868176  0.08301383  0.25210337     0.07600
C113        C  0.02169737  0.11813194  0.22705968     0.01400
H114        H  0.95211232  0.07747000  0.29721772     0.09000
H115        H  0.04364760  0.11997910  0.20459669     0.08100
N116        N  0.92333449  0.21114066  0.29094942    -0.35800
N117        N  0.93359286  0.24734198  0.27094010    -0.27900
C118        C  0.90884468  0.26470876  0.28283390    -0.03200
C119        C  0.88135783  0.23814213  0.31163658     0.05400
C120        C  0.89180352  0.20475262  0.31636394     0.03500
H121        H  0.91208347  0.29552164  0.27232139     0.08600
H122        H  0.87772151  0.17799668  0.33694489     0.07500
N123        N  0.75129700  0.68344475  0.26509024    -0.26900
N124        N  0.78209586  0.71092855  0.28893989    -0.34800
C125        C  0.78362339  0.68708583  0.31842763     0.01400
C126        C  0.75249831  0.64240415  0.31261350     0.07400
C127        C  0.73229014  0.64157252  0.27869060    -0.05700
H128        H  0.80575242  0.70116111  0.34230589     0.08100
H129        H  0.70457022  0.61307433  0.26548469     0.09300
Cu130      Cu  0.81966700  0.77952858  0.27926773     0.44200
Cu131      Cu  0.73376589  0.70469163  0.21690243     0.42000
Cu132      Cu  0.78609961  0.82300219  0.19858367     0.43900
N133        N  0.85596267  0.84495848  0.25927412    -0.34300
N134        N  0.84508471  0.86023562  0.22925297    -0.28600
C135        C  0.87809931  0.90223561  0.22211291    -0.04700
C136        C  0.91117673  0.91418997  0.24905266     0.07600
C137        C  0.89561973  0.87705688  0.27230305     0.01400
H138        H  0.87840064  0.92240612  0.19864204     0.09000
H139        H  0.91264836  0.87309489  0.29621898     0.08100
N140        N  0.72565083  0.77565958  0.17421740    -0.35800
N141        N  0.70864763  0.73231862  0.17964576    -0.27900
C142        C  0.66880054  0.70999171  0.16289102    -0.03200
C143        C  0.65909192  0.74048771  0.14693651     0.05400
C144        C  0.69635311  0.78192055  0.15401558     0.03500
H145        H  0.64789416  0.67408771  0.16361752     0.08600
H146        H  0.70067998  0.81425628  0.14688408     0.07500
N147        N  0.95275006  0.69407249  0.20571615    -0.26900
N148        N  0.93284623  0.71643277  0.19571111    -0.34800
C149        C  0.89839123  0.69054053  0.17290400     0.01400
C150        C  0.89695066  0.65021668  0.16817465     0.07400
C151        C  0.93187308  0.65361803  0.18923360    -0.05700
H152        H  0.87608825  0.70031782  0.16071090     0.08100
H153        H  0.94087229  0.62820558  0.19293958     0.09300
Cu154      Cu  0.95397205  0.78108185  0.21401868     0.44200
Cu155      Cu  0.00555141  0.71842184  0.24337118     0.42000
Cu156      Cu  0.03428349  0.82156249  0.29144212     0.43900
N157        N  0.98006789  0.84394185  0.23836633    -0.34300
N158        N  0.00710985  0.85758554  0.26780670    -0.28600
C159        C  0.01601724  0.89881990  0.27751332    -0.04700
C160        C  0.99422320  0.91223247  0.25262327     0.07600
C161        C  0.97198824  0.87656387  0.22805652     0.01400
H162        H  0.03750072  0.91802081  0.30059554     0.09000
H163        H  0.95126297  0.87439254  0.20446604     0.08100
N164        N  0.06279596  0.78278433  0.30428080    -0.35800
N165        N  0.05322190  0.74593367  0.28564434    -0.27900
C166        C  0.07795525  0.72937766  0.29941982    -0.03200
C167        C  0.10441395  0.75707029  0.32809693     0.05400
C168        C  0.09370743  0.79040579  0.33067924     0.03500
H169        H  0.07618835  0.69893836  0.28972537     0.08600
H170        H  0.10770611  0.81837000  0.35001244     0.07500
C171        C  0.66371343  0.32926690  0.53501731     0.45800
H172        H  0.66359411  0.32759231  0.56641187    -0.03200
C173        C  0.66354351  0.33280468  0.46158845     0.45900
H174        H  0.66343729  0.33427353  0.43020224    -0.03200
C175        C  0.68067480  0.37661033  0.51974548    -0.16900
C176        C  0.69298092  0.31328068  0.51622699    -0.16600
C177        C  0.61747149  0.30079839  0.51747499    -0.17000
C178        C  0.68105316  0.37873140  0.48081705    -0.17000
C179        C  0.69242094  0.31442113  0.47734732    -0.16600
C180        C  0.61710825  0.30272459  0.47869723    -0.16900
C181        C  0.33273976  0.66620983  0.53802591     0.45800
H182        H  0.33125251  0.66289070  0.56932955    -0.03200
C183        C  0.33545281  0.67414446  0.46468765     0.45900
H184        H  0.33607114  0.67787664  0.43350983    -0.03200
C185        C  0.31682504  0.62189790  0.51688891    -0.16900
C186        C  0.30365977  0.68406926  0.52247680    -0.16600
C187        C  0.37949086  0.69831407  0.52269596    -0.17000
C188        C  0.31809788  0.62602719  0.47813485    -0.17000
C189        C  0.30519406  0.68855460  0.48388468    -0.16600
C190        C  0.38100405  0.70202845  0.48390792    -0.16900
C191        C  0.04042312  0.03934842  0.75459628     0.02700
C192        C  0.04261964  0.99946284  0.75632350     0.02700
C193        C  0.00269370  0.95726635  0.75790573     0.02700
C194        C  0.96066363  0.95483098  0.75745845     0.02700
C195        C  0.95871630  0.99482087  0.75599740     0.02700
C196        C  0.99849542  0.03705404  0.75412449     0.02700
N197        N  0.31866385  0.08802394  0.73714481    -0.26900
N198        N  0.29067419  0.09442695  0.71667535    -0.34800
C199        C  0.31383655  0.12545384  0.69012406     0.01400
C200        C  0.35851036  0.13922311  0.69428582     0.07400
C201        C  0.36004973  0.11427075  0.72412963    -0.05700
H202        H  0.29911925  0.13608349  0.66857921     0.08100
H203        H  0.38842553  0.11255113  0.73403715     0.09300
Cu204      Cu  0.22222031  0.05798006  0.72461655     0.44200
Cu205      Cu  0.30018746  0.04051634  0.77890969     0.42000
Cu206      Cu  0.18436028  0.97350253  0.79930222     0.43900
N207        N  0.15700969  0.02205069  0.74399533    -0.34300
N208        N  0.14413261  0.99409784  0.77296289    -0.28600
C209        C  0.10183907  0.98166892  0.78165452    -0.04700
C210        C  0.08684875  0.00192055  0.75647065     0.07600
C211        C  0.12278222  0.02684396  0.73273150     0.01400
H212        H  0.08345275  0.95980404  0.80489503     0.09000
H213        H  0.12451797  0.04839412  0.70985255     0.08100
N214        N  0.23185618  0.95928379  0.82011525    -0.35800
N215        N  0.27477152  0.98530262  0.81354014    -0.27900
C216        C  0.29716815  0.96741284  0.82960661    -0.03200
C217        C  0.26691633  0.92814335  0.84726306     0.05400
C218        C  0.22573452  0.92364949  0.84031398     0.03500
H219        H  0.33262926  0.98094808  0.82715769     0.08600
H220        H  0.19373790  0.89612004  0.84865204     0.07500
N221        N  0.69869437  0.95401647  0.71393493    -0.26900
N222        N  0.72291370  0.93920695  0.69760722    -0.34800
C223        C  0.69796067  0.90864290  0.67130389     0.01400
C224        C  0.65610861  0.90427651  0.67104137     0.07400
C225        C  0.65790127  0.93338050  0.69864384    -0.05700
H226        H  0.70891417  0.88958705  0.65501404     0.08100
H227        H  0.63120464  0.93872600  0.70737023     0.09300
Cu228      Cu  0.78763405  0.95943532  0.71463732     0.44200
Cu229      Cu  0.72111716  0.00068190  0.75705965     0.42000
Cu230      Cu  0.82909391  0.03834245  0.79483866     0.43900
N231        N  0.84854732  0.98160311  0.74139112    -0.34300
N232        N  0.86225561  0.00835049  0.77117177    -0.28600
C233        C  0.90231140  0.01542666  0.78176315    -0.04700
C234        C  0.91500465  0.99283356  0.75716048     0.07600
C235        C  0.88001935  0.97162602  0.73198217     0.01400
H236        H  0.92163830  0.03695960  0.80479449     0.09000
H237        H  0.87801150  0.95119910  0.70812059     0.08100
N238        N  0.79048255  0.06579721  0.81075984    -0.35800
N239        N  0.75030543  0.05105145  0.79689115    -0.27900
C240        C  0.73357185  0.07538851  0.81112648    -0.03200
C241        C  0.76499961  0.10778065  0.83463236     0.05400
C242        C  0.80049663  0.10026551  0.83420864     0.03500
H243        H  0.70072312  0.06952196  0.80490421     0.08600
H244        H  0.83164425  0.11911197  0.84912593     0.07500
N245        N  0.04302102  0.30203802  0.78444357    -0.26900
N246        N  0.06117132  0.27878166  0.79647479    -0.34800
C247        C  0.09728583  0.30545140  0.81730699     0.01400
C248        C  0.10202717  0.34755829  0.81845105     0.07400
C249        C  0.06678196  0.34403945  0.79764271    -0.05700
H250        H  0.11772683  0.29459915  0.83142740     0.08100
H251        H  0.05897820  0.37010080  0.79253844     0.09300
Cu252      Cu  0.03489920  0.21165218  0.78410599     0.44200
Cu253      Cu  0.98702958  0.27492496  0.75027794     0.42000
Cu254      Cu  0.94711702  0.16287529  0.71297604     0.43900
N255        N  0.00769824  0.14699111  0.76382575    -0.34300
N256        N  0.97838433  0.13019351  0.73608181    -0.28600
C257        C  0.97105673  0.08905456  0.72787425    -0.04700
C258        C  0.99623821  0.07908959  0.75216005     0.07600
C259        C  0.01868686  0.11664182  0.77470062     0.01400
H260        H  0.94852499  0.06764659  0.70619624     0.09000
H261        H  0.04189093  0.12183137  0.79711938     0.08100
N262        N  0.91795945  0.20147694  0.70066570    -0.35800
N263        N  0.93247452  0.24179906  0.71484667    -0.27900
C264        C  0.90707998  0.25793538  0.70191258    -0.03200
C265        C  0.87441867  0.22621144  0.67880842     0.05400
C266        C  0.88275399  0.19103553  0.67823320     0.03500
H267        H  0.91335787  0.29124165  0.70769883     0.08600
H268        H  0.86468075  0.16024509  0.66250523     0.07500
N269        N  0.24738963  0.30499382  0.70197460    -0.26900
N270        N  0.20627066  0.27830930  0.69028735    -0.34800
C271        C  0.19404808  0.30154217  0.66770739     0.01400
C272        C  0.22901226  0.34507229  0.66554671     0.07400
C273        C  0.26251656  0.34578043  0.68704557    -0.05700
H274        H  0.16167308  0.28809787  0.65478424     0.08100
H275        H  0.29523921  0.37414424  0.69212210     0.09300
Cu276      Cu  0.16801148  0.21268845  0.70817432     0.44200
Cu277      Cu  0.28005311  0.28625359  0.74020978     0.42000
Cu278      Cu  0.21348219  0.17995374  0.78657535     0.43900
N279        N  0.13427326  0.15146381  0.73540675    -0.34300
N280        N  0.14942261  0.14074410  0.76551617    -0.28600
C281        C  0.11824847  0.09995055  0.77753701    -0.04700
C282        C  0.08214930  0.08373185  0.75329090     0.07600
C283        C  0.09366396  0.11736702  0.72689256     0.01400
H284        H  0.12206140  0.08279373  0.80153334     0.09000
H285        H  0.07382871  0.11717115  0.70330187     0.08100
N286        N  0.28071317  0.22229100  0.79757389    -0.35800
N287        N  0.30487187  0.26123387  0.78058061    -0.27900
C288        C  0.34681638  0.28047586  0.79336317    -0.03200
C289        C  0.34972004  0.25195672  0.81924798     0.05400
C290        C  0.30687885  0.21558433  0.82141525     0.03500
H291        H  0.37274849  0.31332138  0.78483026     0.08600
H292        H  0.29564963  0.18608137  0.83875954     0.07500
N293        N  0.97603484  0.70500637  0.81567035    -0.26900
N294        N  0.95499217  0.72576141  0.82674188    -0.34800
C295        C  0.92120870  0.69817031  0.84961428     0.01400
C296        C  0.92160031  0.65839110  0.85325500     0.07400
C297        C  0.95678038  0.66415444  0.83114323    -0.05700
H298        H  0.89678745  0.70563524  0.86068157     0.08100
H299        H  0.96666058  0.63971310  0.82546098     0.09300
Cu300      Cu  0.97262294  0.78918277  0.80649527     0.44200
Cu301      Cu  0.02575428  0.72996620  0.77604006     0.42000
Cu302      Cu  0.05184040  0.82943728  0.72570341     0.43900
N303        N  0.99550549  0.84995775  0.77839967    -0.34300
N304        N  0.02164855  0.86287768  0.74825562    -0.28600
C305        C  0.02762989  0.90232934  0.73615713    -0.04700
C306        C  0.00497857  0.91549671  0.76015053     0.07600
C307        C  0.98516663  0.88153707  0.78670095     0.01400
H308        H  0.04768345  0.92050847  0.71201143     0.09000
H309        H  0.96433941  0.87970595  0.81010962     0.08100
N310        N  0.08118456  0.79150939  0.71362880    -0.35800
N311        N  0.07087056  0.75474817  0.73262761    -0.27900
C312        C  0.09402846  0.73660738  0.71896303    -0.03200
C313        C  0.12139838  0.76377762  0.69043000     0.05400
C314        C  0.11188610  0.79803811  0.68736039     0.03500
H315        H  0.08968487  0.70501355  0.72841691     0.08600
H316        H  0.12630170  0.82566468  0.66760214     0.07500
N317        N  0.76461353  0.67629755  0.74149574    -0.26900
N318        N  0.80161192  0.70310548  0.72297729    -0.34800
C319        C  0.80943083  0.67864847  0.69782324     0.01400
C320        C  0.77589556  0.63425474  0.70087619     0.07400
C321        C  0.74782886  0.63441713  0.72854126    -0.05700
H322        H  0.83688627  0.69231281  0.67806764     0.08100
H323        H  0.71600524  0.60686749  0.73710380     0.09300
Cu324      Cu  0.83760763  0.77212058  0.73187414     0.44200
Cu325      Cu  0.73618950  0.69765074  0.78172002     0.42000
Cu326      Cu  0.79244616  0.81478666  0.80368736     0.43900
N327        N  0.86848869  0.83877520  0.74930841    -0.34300
N328        N  0.85331717  0.85352643  0.77667522    -0.28600
C329        C  0.88315225  0.89673898  0.78341427    -0.04700
C330        C  0.91865687  0.91033535  0.75876474     0.07600
C331        C  0.90782052  0.87263382  0.73733836     0.01400
H332        H  0.87954518  0.91664899  0.80512733     0.09000
H333        H  0.92781916  0.86962997  0.71542745     0.08100
N334        N  0.73001049  0.76903221  0.82505292    -0.35800
N335        N  0.71021327  0.72578039  0.81781584    -0.27900
C336        C  0.67016871  0.70501844  0.83467840    -0.03200
C337        C  0.66432965  0.73668802  0.85335406     0.05400
C338        C  0.70268538  0.77700430  0.84634344     0.03500
H339        H  0.64618049  0.66980478  0.83195282     0.08600
H340        H  0.70976754  0.80977344  0.85535406     0.07500
C341        C  0.25694513  0.46203423  0.63746405    -0.22100
C342        C  0.24452821  0.45582412  0.59934103     0.09900
C343        C  0.22277977  0.41228740  0.58398630     0.10300
C344        C  0.21620549  0.37627908  0.60684885    -0.17000
C345        C  0.23073132  0.38287732  0.64459652    -0.27400
C346        C  0.24936138  0.42608216  0.66057118     0.18600
C347        C  0.25959362  0.49622475  0.57580571     0.12600
C348        C  0.20678960  0.40291813  0.54363509    -0.11800
H349        H  0.20116175  0.34312742  0.59467140     0.12900
C350        C  0.26074814  0.43566486  0.70191536    -0.22600
H351        H  0.27329035  0.49546593  0.64922212     0.08500
C352        C  0.24133099  0.52424210  0.57957892     0.04800
C353        C  0.26114079  0.56522892  0.56029090    -0.19800
C354        C  0.29857876  0.57864618  0.53726641    -0.12100
C355        C  0.31673972  0.55033743  0.53358594     0.13500
C356        C  0.29653333  0.50922669  0.55243847    -0.22600
C357        C  0.20077564  0.51066172  0.60357098    -0.05600
H358        H  0.24725810  0.58688275  0.56308029     0.15100
C359        C  0.35854257  0.56308693  0.51179374    -0.15800
H360        H  0.31092041  0.48790599  0.55023483     0.09400
H361        H  0.24445350  0.45356925  0.71358148     0.07300
H362        H  0.29724376  0.45713574  0.70521179     0.08500
H363        H  0.24900120  0.40513999  0.71923512     0.07500
H364        H  0.22411742  0.38819693  0.52823537     0.02400
H365        H  0.21263430  0.43330723  0.52824661     0.02900
H366        H  0.17051984  0.37879132  0.54325444     0.06400
H367        H  0.19012954  0.53593413  0.60253492     0.05400
H368        H  0.20780271  0.50679198  0.63348238    -0.00400
H369        H  0.17293414  0.47844432  0.59319749     0.01100
H370        H  0.38311547  0.56147561  0.53069843     0.04700
H371        H  0.37425853  0.59738144  0.50058724     0.06700
H372        H  0.35097292  0.53955694  0.48791895     0.07500
C373        C  0.20806307  0.68675203  0.57145932    -0.22100
C374        C  0.23137442  0.72454247  0.59443211     0.09900
C375        C  0.27824527  0.74771308  0.59473030     0.10300
C376        C  0.30070335  0.73269253  0.57163447    -0.17000
C377        C  0.27741337  0.69584208  0.54773903    -0.27400
C378        C  0.23049025  0.67190836  0.54816393     0.18600
C379        C  0.20569803  0.73824443  0.61861431     0.12600
C380        C  0.30459992  0.78901230  0.61837333    -0.11800
H381        H  0.33670816  0.75055146  0.57135151     0.12900
C382        C  0.20307419  0.63012685  0.52534543    -0.22600
H383        H  0.17205634  0.66859744  0.57189126     0.08500
C384        C  0.17945247  0.75491982  0.60331791     0.04800
C385        C  0.15268058  0.76336991  0.62754920    -0.19800
C386        C  0.15185662  0.75604373  0.66667472    -0.12100
C387        C  0.17995519  0.74148419  0.68210069     0.13500
C388        C  0.20589383  0.73210421  0.65772422    -0.22600
C389        C  0.17912529  0.76444240  0.56173573    -0.05600
H390        H  0.13181774  0.77520516  0.61565755     0.15100
C391        C  0.18440160  0.73730545  0.72412522    -0.15800
H392        H  0.22611257  0.71928280  0.66920133     0.09400
H393        H  0.18198103  0.63568710  0.50511980     0.07300
H394        H  0.18129468  0.60222496  0.54458480     0.08500
H395        H  0.22349129  0.61959290  0.50924183     0.07500
H396        H  0.29782758  0.78075066  0.64883237     0.02400
H397        H  0.29542802  0.81439829  0.61073560     0.02900
H398        H  0.34089213  0.80397362  0.61383839     0.06400
H399        H  0.18864155  0.79995541  0.55780209     0.05400
H400        H  0.14523482  0.74285945  0.55020358    -0.00400
H401        H  0.20266065  0.75869260  0.54499019     0.01100
H402        H  0.15406376  0.70830495  0.73568065     0.04700
H403        H  0.19085513  0.76841285  0.73862243     0.06700
H404        H  0.21245222  0.73186250  0.73080732     0.07500
C405        C  0.47443478  0.73882440  0.59401981    -0.22100
C406        C  0.49454561  0.78522856  0.58977476     0.09900
C407        C  0.47525599  0.80284448  0.56519551     0.10300
C408        C  0.43716534  0.77356014  0.54457110    -0.17000
C409        C  0.41776430  0.72702090  0.54781984    -0.27400
C410        C  0.43606818  0.70945006  0.57374365     0.18600
C411        C  0.53598429  0.81465375  0.61105523     0.12600
C412        C  0.49443851  0.85248599  0.56104801    -0.11800
H413        H  0.42254598  0.78705713  0.52545726     0.12900
C414        C  0.41753669  0.66019779  0.57985617    -0.22600
H415        H  0.48927441  0.72534350  0.61292319     0.08500
C416        C  0.53574336  0.81982852  0.65062274     0.04800
C417        C  0.57564515  0.84861457  0.66928333    -0.19800
C418        C  0.61594689  0.87239694  0.64948631    -0.12100
C419        C  0.61616484  0.86718790  0.60980186     0.13500
C420        C  0.57620689  0.83806202  0.59117995    -0.22600
C421        C  0.49327604  0.79595428  0.67309436    -0.05600
H422        H  0.57535458  0.85273660  0.69965642     0.15100
C423        C  0.65772231  0.89371337  0.58665917    -0.15800
H424        H  0.57615838  0.83385291  0.56078937     0.09400
H425        H  0.40739243  0.65168818  0.60986784     0.07300
H426        H  0.44337373  0.65147679  0.57316753     0.01700
H427        H  0.38852250  0.63927228  0.56198326     0.07500
H428        H  0.52853540  0.86813916  0.54926643     0.02400
H429        H  0.49545276  0.86735947  0.58908197     0.02900
H430        H  0.47425728  0.86042918  0.54171670     0.06400
H431        H  0.49885598  0.80507512  0.70350684     0.05400
H432        H  0.47897421  0.75930204  0.67103048    -0.00400
H433        H  0.46898901  0.80493546  0.66203600     0.01100
H434        H  0.68253414  0.88393910  0.59405002     0.04700
H435        H  0.67180356  0.92995119  0.59193808     0.06700
H436        H  0.65098507  0.88778502  0.55588460     0.07500
C437        C  0.78601273  0.30187693  0.56202864    -0.22100
C438        C  0.76159884  0.26434867  0.58509901     0.09900
C439        C  0.71482640  0.24336626  0.58572330     0.10300
C440        C  0.69365404  0.26033177  0.56298196    -0.17000
C441        C  0.71803924  0.29737408  0.53925543    -0.27400
C442        C  0.76499395  0.31886447  0.53929568     0.18600
C443        C  0.78632184  0.24925667  0.60939219     0.12600
C444        C  0.68722848  0.20272314  0.60981920    -0.11800
H445        H  0.65774172  0.24427592  0.56334333     0.12900
C446        C  0.79427740  0.36070757  0.51718478    -0.22600
H447        H  0.82198365  0.31860178  0.56229807     0.08500
C448        C  0.80991113  0.22974537  0.59389000     0.04800
C449        C  0.83712115  0.22099531  0.61747543    -0.19800
C450        C  0.84141057  0.23145612  0.65617501    -0.12100
C451        C  0.81531491  0.24815154  0.67206447     0.13500
C452        C  0.78855269  0.25732357  0.64836896    -0.22600
C453        C  0.80633447  0.21816965  0.55248983    -0.05600
H454        H  0.85630220  0.20731227  0.60537755     0.15100
C455        C  0.81418929  0.25491408  0.71404859    -0.15800
H456        H  0.76996173  0.27181851  0.66018138     0.09400
H457        H  0.81462505  0.35427576  0.49677073     0.07300
H458        H  0.81670461  0.38768793  0.53681036     0.08500
H459        H  0.77525754  0.37286133  0.50136355     0.07500
H460        H  0.69509696  0.21111169  0.64013447     0.02400
H461        H  0.69427736  0.17588591  0.60201922     0.02900
H462        H  0.65112892  0.18967632  0.60595820     0.06400
H463        H  0.82573693  0.20177270  0.54526625     0.05400
H464        H  0.81917265  0.24882002  0.53500926    -0.00400
H465        H  0.77104615  0.19490265  0.54511121     0.01100
H466        H  0.84648834  0.28261027  0.72395044     0.04700
H467        H  0.80633846  0.22371846  0.72914396     0.06700
H468        H  0.78844355  0.26344414  0.72172622     0.07500
C469        C  0.51598959  0.21135743  0.56995823    -0.22100
C470        C  0.50339647  0.23788069  0.59029698     0.09900
C471        C  0.52817941  0.28476952  0.58643159     0.10300
C472        C  0.56569000  0.30397054  0.56297732    -0.17000
C473        C  0.57740207  0.27741686  0.54158952    -0.27400
C474        C  0.55198441  0.23039535  0.54492047     0.18600
C475        C  0.46510691  0.21556811  0.61639844     0.12600
C476        C  0.51450205  0.31452202  0.60607150    -0.11800
H477        H  0.58546936  0.33998012  0.56058470     0.12900
C478        C  0.56193998  0.19919860  0.52327128    -0.22600
H479        H  0.49740609  0.17539921  0.57354598     0.08500
C480        C  0.42161317  0.18686238  0.60307673     0.04800
C481        C  0.38725198  0.16346129  0.62924004    -0.19800
C482        C  0.39540514  0.16789651  0.66833324    -0.12100
C483        C  0.43866698  0.19843589  0.68155997     0.13500
C484        C  0.47298817  0.22153886  0.65536218    -0.22600
C485        C  0.41132624  0.18105738  0.56135396    -0.05600
H486        H  0.35408671  0.14050022  0.61903856     0.15100
C487        C  0.44897529  0.20783090  0.72303347    -0.15800
H488        H  0.50650048  0.24361406  0.66534853     0.09400
H489        H  0.53238872  0.17576998  0.50645340     0.07300
H490        H  0.57032671  0.17980551  0.54322391     0.08500
H491        H  0.58976582  0.21705872  0.50351600     0.07500
H492        H  0.51624070  0.31174406  0.63716977     0.02400
H493        H  0.48002018  0.30466378  0.59786711     0.02900
H494        H  0.53643176  0.35016155  0.59826685     0.06400
H495        H  0.37525468  0.15899277  0.55602573     0.05400
H496        H  0.42890684  0.16577630  0.54734487    -0.00400
H497        H  0.42186855  0.21404077  0.54823178     0.01100
H498        H  0.48189989  0.23818257  0.72762012     0.04700
H499        H  0.44982098  0.17963050  0.73688555     0.06700
H500        H  0.42354155  0.21328515  0.73676937     0.07500
C501        C  0.74041681  0.51742190  0.66382538    -0.22100
C502        C  0.74595157  0.52531065  0.62477195     0.09900
C503        C  0.76477724  0.56953454  0.61117077     0.10300
C504        C  0.77535534  0.60445042  0.63679127    -0.17000
C505        C  0.76777666  0.59639312  0.67578929    -0.27400
C506        C  0.75176359  0.55242757  0.68959215     0.18600
C507        C  0.72946886  0.48670308  0.59846372     0.12600
C508        C  0.77400450  0.57999418  0.56963107    -0.11800
H509        H  0.78846268  0.63812064  0.62611323     0.12900
C510        C  0.74812048  0.54218579  0.73132232    -0.22600
H511        H  0.72633200  0.48348596  0.67416780     0.08500
C512        C  0.74949364  0.46012930  0.59561150     0.04800
C513        C  0.73227141  0.42434013  0.56993378    -0.19800
C514        C  0.69640032  0.41523757  0.54614948    -0.12100
C515        C  0.67599218  0.44157169  0.54959879     0.13500
C516        C  0.69257239  0.47654531  0.57587745    -0.22600
C517        C  0.78967888  0.47012976  0.61878574    -0.05600
H518        H  0.74755306  0.40387806  0.56773638     0.15100
C519        C  0.63617811  0.43358299  0.52706821    -0.15800
H520        H  0.67656825  0.49629092  0.57873111     0.09400
H521        H  0.74008982  0.50731420  0.73670795     0.07300
H522        H  0.72128999  0.54589815  0.74429617     0.08500
H523        H  0.78019864  0.56482274  0.74544057     0.07500
H524        H  0.74258945  0.56375973  0.55332327     0.02400
H525        H  0.79604376  0.56778264  0.55920745     0.02900
H526        H  0.79066874  0.61646589  0.56409105     0.06400
H527        H  0.80211191  0.44709018  0.61190851     0.05400
H528        H  0.78133719  0.46643678  0.64932516    -0.00400
H529        H  0.81678218  0.50479376  0.61306348     0.01100
H530        H  0.60817654  0.42611122  0.54643252     0.04700
H531        H  0.62517230  0.40547101  0.50751447     0.06700
H532        H  0.64439435  0.46384098  0.51020958     0.07500
C533        C  0.20071288  0.74242103  0.35906935    -0.22100
C534        C  0.19177594  0.73355790  0.39775307     0.09900
C535        C  0.15529285  0.73466006  0.41392045     0.10300
C536        C  0.12799235  0.74376950  0.39075057    -0.17000
C537        C  0.13599988  0.75098779  0.35175070    -0.27400
C538        C  0.17315151  0.75090635  0.33580913     0.18600
C539        C  0.22036806  0.72178205  0.42031035     0.12600
C540        C  0.14460890  0.72510041  0.45533975    -0.11800
H541        H  0.09954667  0.74398900  0.40288195     0.12900
C542        C  0.18434212  0.76063159  0.29445516    -0.22600
H543        H  0.22907387  0.74200344  0.34696231     0.08500
C544        C  0.21621247  0.67922080  0.41734284     0.04800
C545        C  0.24503599  0.66996232  0.43791305    -0.19800
C546        C  0.27760059  0.70200810  0.46174743    -0.12100
C547        C  0.28238500  0.74498404  0.46417893     0.13500
C548        C  0.25327782  0.75411302  0.44375959    -0.22600
C549        C  0.18087136  0.64332025  0.39295664    -0.05600
H550        H  0.24160417  0.63713386  0.43598035     0.15100
C551        C  0.31877734  0.78242261  0.48662621    -0.15800
H552        H  0.25689762  0.78703079  0.44547460     0.09400
H553        H  0.21553035  0.76104560  0.28711079     0.07300
H554        H  0.18875972  0.79382919  0.28728461     0.08500
H555        H  0.15735010  0.73464539  0.27692040     0.07500
H556        H  0.17279806  0.75014525  0.47253152     0.02400
H557        H  0.13860327  0.69122598  0.46221261     0.02900
H558        H  0.11452256  0.72651946  0.46330066     0.06400
H559        H  0.18156227  0.61167035  0.39459970     0.05400
H560        H  0.18597521  0.65428799  0.36298099    -0.00400
H561        H  0.14761741  0.63641116  0.40241093     0.01100
H562        H  0.33874910  0.81133859  0.46769061     0.04700
H563        H  0.34189513  0.77312009  0.49961942     0.06700
H564        H  0.30393275  0.79289737  0.50931628     0.07500
C565        C  0.74299903  0.49596542  0.43743251    -0.22100
C566        C  0.70993256  0.49459902  0.41403507     0.09900
C567        C  0.66774191  0.45555675  0.41296446     0.10300
C568        C  0.65988456  0.41846249  0.43481849    -0.17000
C569        C  0.69288335  0.41963013  0.45834025    -0.27400
C570        C  0.73520591  0.45895712  0.45942981     0.18600
C571        C  0.72116942  0.53314348  0.38881682     0.12600
C572        C  0.63081596  0.45324229  0.38917582    -0.11800
H573        H  0.62749530  0.38846973  0.43398014     0.12900
C574        C  0.77360211  0.46276593  0.48182672    -0.22600
H575        H  0.77558761  0.52575361  0.43769696     0.08500
C576        C  0.72592731  0.57356214  0.40249601     0.04800
C577        C  0.73631137  0.60871165  0.37702614    -0.19800
C578        C  0.74175142  0.60422603  0.33819002    -0.12100
C579        C  0.73787237  0.56390186  0.32479426     0.13500
C580        C  0.72770043  0.52900629  0.35031026    -0.22600
C581        C  0.71941881  0.57928546  0.44378288    -0.05600
H582        H  0.73963919  0.63968556  0.38740569     0.15100
C583        C  0.74653145  0.55803156  0.28409006    -0.15800
H584        H  0.72485089  0.49812340  0.34020771     0.09400
H585        H  0.78395688  0.48953426  0.50332087     0.07300
H586        H  0.80198221  0.47127732  0.46260678     0.08500
H587        H  0.76552088  0.43145349  0.49634099     0.07500
H588        H  0.64023943  0.45734422  0.35885170     0.02400
H589        H  0.62422251  0.48017479  0.39774904     0.02900
H590        H  0.59955530  0.42072964  0.39253970     0.06400
H591        H  0.72338709  0.61258657  0.44961291     0.05400
H592        H  0.74424263  0.57600647  0.46098013    -0.00400
H593        H  0.68552143  0.55335674  0.45272238     0.01100
H594        H  0.74634903  0.52623424  0.27954229     0.04700
H595        H  0.77961880  0.58586236  0.27553835     0.06700
H596        H  0.72050242  0.55724494  0.26565703     0.07500
C597        C  0.73685048  0.24696037  0.42723122    -0.22100
C598        C  0.77084836  0.28014289  0.40520908     0.09900
C599        C  0.77804322  0.32403045  0.40602527     0.10300
C600        C  0.75097275  0.33365712  0.42896294    -0.17000
C601        C  0.71788488  0.30081550  0.45213232    -0.27400
C602        C  0.71041474  0.25664514  0.45076781     0.18600
C603        C  0.79856573  0.26808038  0.38167622     0.12600
C604        C  0.81507972  0.36092911  0.38355885    -0.11800
H605        H  0.75659393  0.36738367  0.42979237     0.12900
C606        C  0.67446562  0.21850445  0.47285400    -0.22600
H607        H  0.73101895  0.21315831  0.42615254     0.08500
C608        C  0.83117961  0.26050671  0.39795680     0.04800
C609        C  0.85699097  0.24974678  0.37448091    -0.19800
C610        C  0.85123961  0.24681855  0.33509528    -0.12100
C611        C  0.81770599  0.25321240  0.31892763     0.13500
C612        C  0.79175474  0.26371514  0.34247905    -0.22600
C613        C  0.83938163  0.26475008  0.43998659    -0.05600
H614        H  0.88253840  0.24463648  0.38683272     0.15100
C615        C  0.80808974  0.24751712  0.27711227    -0.15800
H616        H  0.76603500  0.26868169  0.33030322     0.09400
H617        H  0.68943519  0.20418751  0.49189889     0.07300
H618        H  0.65119195  0.19218855  0.45313868     0.08500
H619        H  0.65519949  0.22891741  0.49025360     0.07500
H620        H  0.80979255  0.35315948  0.35292851     0.02400
H621        H  0.84731711  0.36444315  0.39215879     0.02900
H622        H  0.81689285  0.39349412  0.38820766     0.06400
H623        H  0.86689133  0.25895282  0.44791775     0.05400
H624        H  0.80907985  0.23982888  0.45522143    -0.00400
H625        H  0.84829723  0.29882384  0.44939027     0.01100
H626        H  0.80076517  0.21379758  0.26809801     0.04700
H627        H  0.83691295  0.27326424  0.26095594     0.06700
H628        H  0.77898299  0.25097308  0.26979353     0.07500
C629        C  0.25144030  0.42972554  0.40735937    -0.22100
C630        C  0.25324338  0.46597632  0.38811796     0.09900
C631        C  0.24523228  0.46295561  0.34882074     0.10300
C632        C  0.23708237  0.42420220  0.32943449    -0.17000
C633        C  0.23633348  0.38829765  0.34850761    -0.27400
C634        C  0.24320520  0.39091518  0.38809993     0.18600
C635        C  0.26760880  0.50807819  0.40913785     0.12600
C636        C  0.24517079  0.50053822  0.32743111    -0.11800
H637        H  0.23169826  0.42203533  0.29913167     0.12900
C638        C  0.24442630  0.35469612  0.41077084    -0.22600
H639        H  0.25813612  0.43239694  0.43748527     0.08500
C640        C  0.23998110  0.51246829  0.43582531     0.04800
C641        C  0.25669773  0.55218301  0.45662627    -0.19800
C642        C  0.30058352  0.58735395  0.45173558    -0.12100
C643        C  0.32751250  0.58362405  0.42367552     0.13500
C644        C  0.31077271  0.54375921  0.40313117    -0.22600
C645        C  0.19299759  0.47534394  0.44235220    -0.05600
H646        H  0.23570600  0.55550695  0.47742104     0.15100
C647        C  0.37437139  0.62050247  0.41596446    -0.15800
H648        H  0.33172121  0.54001328  0.38255047     0.09400
H649        H  0.21787357  0.34191899  0.43257088     0.07300
H650        H  0.27707680  0.36868917  0.42511146     0.08500
H651        H  0.23986814  0.32614431  0.39344092     0.07500
H652        H  0.27837119  0.53112157  0.32898668     0.02400
H653        H  0.22003582  0.50752648  0.33984962     0.02900
H654        H  0.23696937  0.49213751  0.29711273     0.06400
H655        H  0.17570796  0.48472383  0.46365112     0.05400
H656        H  0.19288849  0.44509953  0.45280647    -0.00400
H657        H  0.17410746  0.46737382  0.41546050     0.01100
H658        H  0.39422432  0.62954562  0.44215947     0.04700
H659        H  0.37447009  0.65027058  0.40448866     0.06700
H660        H  0.39115273  0.61035308  0.39481043     0.07500
C661        C  0.50208451  0.25580667  0.43413456    -0.22100
C662        C  0.49966303  0.22104331  0.41229866     0.09900
C663        C  0.53672817  0.21489106  0.41059359     0.10300
C664        C  0.57494939  0.24309007  0.43164985    -0.17000
C665        C  0.57674941  0.27676963  0.45487125    -0.27400
C666        C  0.54001605  0.28376226  0.45535262     0.18600
C667        C  0.45809068  0.19179470  0.39126122     0.12600
C668        C  0.53552357  0.17787073  0.38741303    -0.11800
H669        H  0.60320507  0.23798069  0.43089591     0.12900
C670        C  0.53971493  0.32084085  0.47692919    -0.22600
H671        H  0.47399055  0.26120163  0.43460618     0.08500
C672        C  0.41873559  0.16034208  0.40996087     0.04800
C673        C  0.38071939  0.13245240  0.38852332    -0.19800
C674        C  0.38130006  0.13527424  0.34892050    -0.12100
C675        C  0.42007547  0.16839015  0.33047668     0.13500
C676        C  0.45801534  0.19594965  0.35188147    -0.22600
C677        C  0.41727122  0.15523175  0.45235271    -0.05600
H678        H  0.35088536  0.10729462  0.40262015     0.15100
C679        C  0.42234777  0.17674950  0.28851402    -0.15800
H680        H  0.48783466  0.22110193  0.33772582     0.09400
H681        H  0.51228006  0.30667454  0.49794285     0.07300
H682        H  0.53477406  0.34283225  0.45711923     0.08500
H683        H  0.57106278  0.34147567  0.49192492     0.07500
H684        H  0.53112665  0.18281273  0.35707497     0.02400
H685        H  0.50755028  0.14520719  0.39694574     0.02900
H686        H  0.56673788  0.17686573  0.39025553     0.06400
H687        H  0.38439853  0.12807259  0.46223566     0.05400
H688        H  0.42362729  0.18666995  0.46609748    -0.00400
H689        H  0.44288344  0.14718870  0.46159635     0.01100
H690        H  0.43251623  0.21226886  0.28352820     0.04700
H691        H  0.39016335  0.15624847  0.27400568     0.06700
H692        H  0.44734552  0.16995168  0.27553304     0.07500
C693        C  0.53325128  0.80770431  0.35605317    -0.22100
C694        C  0.53515753  0.81960300  0.39413393     0.09900
C695        C  0.57424229  0.85630965  0.40856664     0.10300
C696        C  0.61063159  0.88062414  0.38430064    -0.17000
C697        C  0.60844271  0.86921121  0.34597246    -0.27400
C698        C  0.56940005  0.83211319  0.33172130     0.18600
C699        C  0.49637741  0.79158623  0.41856961     0.12600
C700        C  0.57718881  0.87007626  0.44933950    -0.11800
H701        H  0.64063707  0.90911261  0.39508283     0.12900
C702        C  0.56625989  0.81719707  0.29126575    -0.22600
H703        H  0.50334166  0.77894339  0.34544223     0.08500
C704        C  0.45737340  0.79430043  0.41711431     0.04800
C705        C  0.42042576  0.76457533  0.43881868    -0.19800
C706        C  0.42161313  0.73223339  0.46189226    -0.12100
C707        C  0.46094467  0.72966509  0.46324879     0.13500
C708        C  0.49786666  0.75972317  0.44184014    -0.22600
C709        C  0.45492472  0.82874792  0.39290956    -0.05600
H710        H  0.39045959  0.76670926  0.43794487     0.15100
C711        C  0.46507372  0.69485390  0.48544745    -0.15800
H712        H  0.52777921  0.75745558  0.44242650     0.09400
H713        H  0.56879311  0.84347639  0.27180976     0.07300
H714        H  0.53418391  0.78626958  0.28550957     0.08500
H715        H  0.59345296  0.81027290  0.28511202     0.07500
H716        H  0.57292942  0.84251955  0.46813259     0.02400
H717        H  0.55074439  0.87807145  0.45560314     0.02900
H718        H  0.60978446  0.90001514  0.45583275     0.06400
H719        H  0.42226217  0.82683285  0.39561785     0.05400
H720        H  0.45980446  0.82348965  0.36275045    -0.00400
H721        H  0.48117904  0.86268759  0.40162221     0.01100
H722        H  0.47466468  0.67584372  0.46618240     0.04700
H723        H  0.43382224  0.67046045  0.49938633     0.06700
H724        H  0.49117312  0.71137823  0.50734998     0.07500
C725        C  0.73877089  0.19871630  0.86001032    -0.22100
C726        C  0.74591186  0.20205320  0.89908815     0.09900
C727        C  0.76352560  0.17766553  0.91646796     0.10300
C728        C  0.77114412  0.14831681  0.89451810    -0.17000
C729        C  0.76096782  0.14256026  0.85574199    -0.27400
C730        C  0.74622916  0.16946206  0.83803928     0.18600
C731        C  0.72974811  0.22727085  0.92134118     0.12600
C732        C  0.77384316  0.18243525  0.95811572    -0.11800
H733        H  0.78349428  0.12859803  0.90792198     0.12900
C734        C  0.73924960  0.16845149  0.79592172    -0.22600
H735        H  0.72578914  0.21803422  0.84685793     0.08500
C736        C  0.75318801  0.27435566  0.92301696     0.04800
C737        C  0.73388900  0.29629197  0.94158419    -0.19800
C738        C  0.69193608  0.27208724  0.95872651    -0.12100
C739        C  0.66834920  0.22496453  0.95656587     0.13500
C740        C  0.68771159  0.20317627  0.93811054    -0.22600
C741        C  0.79864521  0.30121771  0.90568236    -0.05600
H742        H  0.75200613  0.33243879  0.94355153     0.15100
C743        C  0.62208836  0.19755818  0.97222776    -0.15800
H744        H  0.66952802  0.16704243  0.93591915     0.09400
H745        H  0.73309087  0.19547798  0.78662393     0.07300
H746        H  0.71005129  0.13638225  0.78736258     0.08500
H747        H  0.76928848  0.17307638  0.78100426     0.07500
H748        H  0.74315920  0.17227582  0.97470356     0.02400
H749        H  0.79852266  0.21779305  0.96456820     0.02900
H750        H  0.78784129  0.16137121  0.96721257     0.06400
H751        H  0.81266735  0.33762434  0.91004246     0.05400
H752        H  0.79685500  0.29488931  0.87480244    -0.00400
H753        H  0.82149760  0.29152316  0.91879760     0.01100
H754        H  0.60844165  0.16126033  0.96761312     0.04700
H755        H  0.59983240  0.20710456  0.95796969     0.06700
H756        H  0.62182587  0.20297122  0.00295709     0.07500
C757        C  0.68089043  0.21576369  0.08857330    -0.22100
C758        C  0.72351018  0.22334541  0.08082848     0.09900
C759        C  0.75121302  0.25751355  0.05548407     0.10300
C760        C  0.73514611  0.28283855  0.03783777    -0.17000
C761        C  0.69140550  0.27360006  0.04376670    -0.27400
C762        C  0.66428309  0.24018342  0.07031556     0.18600
C763        C  0.73726122  0.19359858  0.09867063     0.12600
C764        C  0.79749630  0.26701394  0.04698916    -0.11800
H765        H  0.75651175  0.30936606  0.01854030     0.12900
C766        C  0.61704936  0.22737307  0.07893296    -0.22600
H767        H  0.65979142  0.18941245  0.10818620     0.08500
C768        C  0.74916939  0.19786986  0.13718982     0.04800
C769        C  0.75672068  0.16563301  0.15400177    -0.19800
C770        C  0.75283486  0.12953100  0.13304332    -0.12100
C771        C  0.74267060  0.12621355  0.09409617     0.13500
C772        C  0.73483374  0.15831462  0.07739191    -0.22600
C773        C  0.75362498  0.23625707  0.16050186    -0.05600
H774        H  0.76478433  0.16804262  0.18383209     0.15100
C775        C  0.73885679  0.08885810  0.06964139    -0.15800
H776        H  0.72562606  0.15517570  0.04779469     0.09400
H777        H  0.61403679  0.23383722  0.10921425     0.07300
H778        H  0.59473077  0.19127185  0.07310927     0.08500
H779        H  0.60527995  0.24571520  0.06174283     0.07500
H780        H  0.79615566  0.23699318  0.03454049     0.02400
H781        H  0.81718866  0.27603829  0.07348477     0.02900
H782        H  0.81479798  0.29500866  0.02659523     0.06400
H783        H  0.76405208  0.23502549  0.18993722     0.05400
H784        H  0.72134532  0.23528280  0.16172897    -0.00400
H785        H  0.77895644  0.26831531  0.14758834     0.01100
H786        H  0.70478745  0.06976405  0.05781765     0.04700
H787        H  0.74567285  0.06521266  0.08524702     0.06700
H788        H  0.76296938  0.10309689  0.04593724     0.07500
C789        C  0.51514647  0.31490829  0.93487125    -0.22100
C790        C  0.50068886  0.27981329  0.90904794     0.09900
C791        C  0.52479260  0.25735484  0.90508190     0.10300
C792        C  0.56282362  0.27058399  0.92735969    -0.17000
C793        C  0.57632868  0.30454162  0.95452387    -0.27400
C794        C  0.55243815  0.32763762  0.95764225     0.18600
C795        C  0.46126195  0.26898253  0.88557160     0.12600
C796        C  0.50970529  0.21876395  0.87816747    -0.11800
H797        H  0.58141279  0.25344243  0.92430777     0.12900
C798        C  0.56560619  0.36686506  0.98338124    -0.22600
H799        H  0.49717006  0.33285079  0.93710239     0.08500
C800        C  0.41820384  0.24876004  0.90126885     0.04800
C801        C  0.38263967  0.24341810  0.87879930    -0.19800
C802        C  0.38911259  0.25865436  0.84116899    -0.12100
C803        C  0.43241983  0.27834764  0.82538024     0.13500
C804        C  0.46774239  0.28292590  0.84777902    -0.22600
C805        C  0.40978608  0.23272700  0.94169563    -0.05600
H806        H  0.34966592  0.22811453  0.89103962     0.15100
C807        C  0.44217803  0.29453670  0.78507388    -0.15800
H808        H  0.50104246  0.29885629  0.83610580     0.09400
H809        H  0.53816664  0.35906909  0.00352076     0.07300
H810        H  0.57228865  0.39655185  0.96634786     0.08500
H811        H  0.59563672  0.37576386  0.99982573     0.07500
H812        H  0.51003912  0.23008832  0.84875775     0.02400
H813        H  0.47547508  0.19221268  0.88562540     0.02900
H814        H  0.53161398  0.20411206  0.87934676     0.06400
H815        H  0.37401656  0.21653451  0.94914460     0.05400
H816        H  0.42835406  0.26125079  0.96122910    -0.00400
H817        H  0.42072053  0.20799717  0.94604866     0.01100
H818        H  0.44212738  0.32634753  0.78234288     0.04700
H819        H  0.41718353  0.26918490  0.76577873     0.06700
H820        H  0.47543274  0.30112970  0.77588947     0.07500
C821        C  0.74960019  0.47215497  0.91096224    -0.22100
C822        C  0.79407025  0.49005622  0.92152229     0.09900
C823        C  0.80545206  0.46809508  0.94899383     0.10300
C824        C  0.77169926  0.42939951  0.96630139    -0.17000
C825        C  0.72677564  0.41250984  0.95717309    -0.27400
C826        C  0.71569504  0.43364267  0.92837634     0.18600
C827        C  0.82779968  0.53275857  0.90428499     0.12600
C828        C  0.85311150  0.48556075  0.96002956    -0.11800
H829        H  0.78029826  0.41260810  0.98769744     0.12900
C830        C  0.66873377  0.41827863  0.91641234    -0.22600
H831        H  0.74116649  0.48915330  0.88961809     0.08500
C832        C  0.84483070  0.53432567  0.86785824     0.04800
C833        C  0.87494849  0.57585381  0.85195186    -0.19800
C834        C  0.88857331  0.61595900  0.87165525    -0.12100
C835        C  0.87227897  0.61413071  0.90868652     0.13500
C836        C  0.84185418  0.57245894  0.92443137    -0.22600
C837        C  0.83152648  0.49214518  0.84600202    -0.05600
H838        H  0.88768328  0.57698793  0.82377274     0.15100
C839        C  0.88798735  0.65547772  0.93238649    -0.15800
H840        H  0.82881238  0.57071851  0.95260842     0.09400
H841        H  0.66462016  0.40906065  0.88602770     0.07300
H842        H  0.66152647  0.44575162  0.92059577     0.08500
H843        H  0.64386389  0.38930306  0.93267235     0.07500
H844        H  0.86749327  0.51975537  0.97177723     0.02400
H845        H  0.87255944  0.48654351  0.93480607     0.02900
H846        H  0.85619754  0.46414684  0.98178312     0.06400
H847        H  0.84850365  0.49927581  0.81814328     0.05400
H848        H  0.79516472  0.47393625  0.84094515    -0.00400
H849        H  0.84044963  0.47041496  0.86232711     0.01100
H850        H  0.87655653  0.67728503  0.91998422     0.04700
H851        H  0.92479149  0.67388544  0.93418305     0.06700
H852        H  0.87463083  0.64719093  0.96164297     0.07500
C853        C  0.49599291  0.25233126  0.05846044    -0.22100
C854        C  0.49885822  0.28336339  0.08526127     0.09900
C855        C  0.53995806  0.32259596  0.09156152     0.10300
C856        C  0.57682553  0.33099057  0.06947323    -0.17000
C857        C  0.57380613  0.30074978  0.04161301    -0.27400
C858        C  0.53321352  0.25985359  0.03729685     0.18600
C859        C  0.45887128  0.27329599  0.10758613     0.12600
C860        C  0.54499324  0.35531761  0.12187745    -0.11800
H861        H  0.60808146  0.36180500  0.07350104     0.12900
C862        C  0.52837380  0.22233473  0.01255517    -0.22600
H863        H  0.46470202  0.22145553  0.05472989     0.08500
C864        C  0.43120049  0.29035571  0.09720092     0.04800
C865        C  0.39496689  0.28171565  0.12040677    -0.19800
C866        C  0.38526541  0.25556253  0.15322372    -0.12100
C867        C  0.41263640  0.23783269  0.16316624     0.13500
C868        C  0.44904285  0.24686632  0.14012188    -0.22600
C869        C  0.43963394  0.31711149  0.06141548    -0.05600
H870        H  0.37381231  0.29504819  0.11274136     0.15100
C871        C  0.40564786  0.21079222  0.19849423    -0.15800
H872        H  0.47044094  0.23385873  0.14795410     0.09400
H873        H  0.50386029  0.21579603  0.98984970     0.07300
H874        H  0.51635094  0.19160186  0.02984964     0.08500
H875        H  0.56011925  0.22934091  0.99965739     0.07500
H876        H  0.53659969  0.33836812  0.14981825     0.02400
H877        H  0.52248548  0.36856398  0.11621377     0.02900
H878        H  0.57949608  0.38403185  0.12327476     0.06400
H879        H  0.41461101  0.32758477  0.05729310     0.05400
H880        H  0.43808048  0.29663205  0.03670433    -0.00400
H881        H  0.47294534  0.34760561  0.06237361     0.01100
H882        H  0.39932170  0.17703698  0.19078782     0.04700
H883        H  0.37753922  0.20684929  0.21600039     0.06700
H884        H  0.43612199  0.22765538  0.21603922     0.07500
C885        C  0.79263689  0.54393975  0.13850090    -0.22100
C886        C  0.80700691  0.53357390  0.10500825     0.09900
C887        C  0.85005141  0.56307955  0.09106474     0.10300
C888        C  0.87877067  0.60117340  0.11216218    -0.17000
C889        C  0.86472968  0.61111796  0.14606373    -0.27400
C890        C  0.82097236  0.58266538  0.15907684     0.18600
C891        C  0.77614009  0.49211902  0.08448605     0.12600
C892        C  0.86532271  0.55457513  0.05373776    -0.11800
H893        H  0.91225170  0.62344149  0.10211021     0.12900
C894        C  0.80459481  0.59260983  0.19507082    -0.22600
H895        H  0.75923801  0.52147910  0.14863060     0.08500
C896        C  0.77639518  0.45191541  0.08996174     0.04800
C897        C  0.74745447  0.41399858  0.06871411    -0.19800
C898        C  0.71838067  0.41546014  0.04207344    -0.12100
C899        C  0.71727280  0.45565338  0.03773657     0.13500
C900        C  0.74628781  0.49335672  0.05889949    -0.22600
C901        C  0.80721875  0.44914436  0.11819827    -0.05600
H902        H  0.74822789  0.38332886  0.07226714     0.15100
C903        C  0.68572004  0.46035184  0.01180288    -0.15800
H904        H  0.74581616  0.52419126  0.05526058     0.09400
H905        H  0.82579503  0.59399741  0.21903596     0.07300
H906        H  0.76975693  0.56660850  0.20137390     0.08500
H907        H  0.80593261  0.62518828  0.19256441     0.07500
H908        H  0.84313740  0.55366147  0.03080459     0.02400
H909        H  0.86444163  0.52214312  0.05453302     0.02900
H910        H  0.89975134  0.58112144  0.04682520     0.06400
H911        H  0.80308610  0.41522137  0.11910164     0.05400
H912        H  0.80022576  0.45717727  0.14685021    -0.00400
H913        H  0.84222598  0.47325456  0.11063600     0.01100
H914        H  0.66416879  0.46902939  0.02853746     0.04700
H915        H  0.66413057  0.42959581  0.99610954     0.06700
H916        H  0.70480049  0.48733586  0.99093299     0.07500
C917        C  0.21045818  0.44518563  0.85489885    -0.22100
C918        C  0.19449134  0.46392052  0.88133343     0.09900
C919        C  0.14828002  0.44356849  0.88761574     0.10300
C920        C  0.11905302  0.40568592  0.86661865    -0.17000
C921        C  0.13487779  0.38692597  0.84015072    -0.27400
C922        C  0.18117862  0.40665863  0.83437518     0.18600
C923        C  0.22626155  0.50552751  0.90154258     0.12600
C924        C  0.12978621  0.46131403  0.91698455    -0.11800
H925        H  0.08356546  0.39029334  0.87112847     0.12900
C926        C  0.19970809  0.38827313  0.80564823    -0.22600
H927        H  0.24591956  0.46109140  0.85004850     0.08500
C928        C  0.25336553  0.50552664  0.93112009     0.04800
C929        C  0.27976273  0.54507038  0.95142332    -0.19800
C930        C  0.27859149  0.58433046  0.94386280    -0.12100
C931        C  0.25263608  0.58463596  0.91309832     0.13500
C932        C  0.22719353  0.54529241  0.89224356    -0.22600
C933        C  0.25309482  0.46345327  0.94229274    -0.05600
H934        H  0.30046873  0.54497061  0.97420849     0.15100
C935        C  0.24931399  0.62512070  0.90299318    -0.15800
H936        H  0.20659984  0.54503494  0.86917759     0.09400
H937        H  0.19132671  0.35398145  0.81373785     0.07300
H938        H  0.23643966  0.40896806  0.80360084     0.08500
H939        H  0.18563902  0.38755298  0.77732679     0.07500
H940        H  0.13793093  0.49571912  0.90955330     0.02400
H941        H  0.14418082  0.46163530  0.94506456     0.02900
H942        H  0.09309473  0.44040586  0.91922276     0.06400
H943        H  0.27522702  0.46903680  0.96678286     0.05400
H944        H  0.26469401  0.45134101  0.91830571    -0.00400
H945        H  0.21890553  0.43730075  0.95030634     0.01100
H946        H  0.28129354  0.65204339  0.89171799     0.04700
H947        H  0.23949421  0.63719432  0.92804845     0.06700
H948        H  0.22401608  0.61749423  0.88074433     0.07500
C949        C  0.19559459  0.51472573  0.04702996    -0.22100
C950        C  0.21542794  0.49879365  0.07214896     0.09900
C951        C  0.26201594  0.52179054  0.07588671     0.10300
C952        C  0.28775798  0.56113096  0.05505379    -0.17000
C953        C  0.26802927  0.57754171  0.03006910    -0.27400
C954        C  0.22115421  0.55386575  0.02602685     0.18600
C955        C  0.18642367  0.45860138  0.09498454     0.12600
C956        C  0.28445955  0.50456302  0.10160343    -0.11800
H957        H  0.32360164  0.57897301  0.05791710     0.12900
C958        C  0.19657274  0.56914663  0.00093192    -0.22600
H959        H  0.15972027  0.49684458  0.04431587     0.08500
C960        C  0.17092445  0.46216369  0.13088794     0.04800
C961        C  0.14207316  0.42317101  0.15094152    -0.19800
C962        C  0.12794368  0.38056165  0.13583655    -0.12100
C963        C  0.14343889  0.37717604  0.09959086     0.13500
C964        C  0.17259835  0.41634827  0.07970857    -0.22600
C965        C  0.18409261  0.50712709  0.14763540    -0.05600
H966        H  0.13013741  0.42600007  0.17850784     0.15100
C967        C  0.12788798  0.33278473  0.08071292    -0.15800
H968        H  0.18426899  0.41411686  0.05182930     0.09400
H969        H  0.17283010  0.57425316  0.01811048     0.07300
H970        H  0.17790379  0.54340368  0.97909723     0.08500
H971        H  0.21883783  0.60079219  0.98648608     0.07500
H972        H  0.27617778  0.47058225  0.09249646     0.02400
H973        H  0.27304438  0.50298646  0.13114742     0.02900
H974        H  0.32114834  0.52638290  0.10101928     0.06400
H975        H  0.16880279  0.50395372  0.17587020     0.05400
H976        H  0.17310429  0.52530960  0.12875509    -0.00400
H977        H  0.22068529  0.52709914  0.15092332     0.01100
H978        H  0.13997118  0.33690696  0.05109260     0.04700
H979        H  0.09104180  0.31327395  0.08006501     0.06700
H980        H  0.14091349  0.31388882  0.09596415     0.07500
C981        C  0.26703181  0.76451453  0.93685701    -0.22100
C982        C  0.30050472  0.79555882  0.91317035     0.09900
C983        C  0.33947953  0.79346286  0.90768739     0.10300
C984        C  0.34456265  0.76090095  0.92704557    -0.17000
C985        C  0.31186753  0.73095583  0.95222631    -0.27400
C986        C  0.27168457  0.73171050  0.95588554     0.18600
C987        C  0.29356694  0.82991562  0.89471803     0.12600
C988        C  0.37564899  0.82568029  0.88161599    -0.11800
H989        H  0.37504547  0.76003130  0.92376292     0.12900
C990        C  0.23229802  0.69800018  0.97839334    -0.22600
H991        H  0.23675499  0.76576920  0.94035095     0.08500
C992        C  0.26415610  0.81923140  0.86398021     0.04800
C993        C  0.25568018  0.85190248  0.84950655    -0.19800
C994        C  0.27625461  0.89508104  0.86483114    -0.12100
C995        C  0.30605519  0.90586537  0.89550309     0.13500
C996        C  0.31432800  0.87305229  0.90999693    -0.22600
C997        C  0.24220119  0.77354873  0.84620190    -0.05600
H998        H  0.23327352  0.84389164  0.82574060     0.15100
C999        C  0.32835514  0.95082303  0.91464380    -0.15800
H1000       H  0.33640806  0.88085903  0.93399263     0.09400
H1001       H  0.20297052  0.68070279  0.95955221     0.07300
H1002       H  0.22466520  0.71520547  0.00111545     0.08500
H1003       H  0.23768888  0.67222035  0.99134465     0.07500
H1004       H  0.38886779  0.86037743  0.89182084     0.02400
H1005       H  0.36211772  0.82260884  0.85266442     0.02900
H1006       H  0.40364708  0.81906035  0.88015959     0.06400
H1007       H  0.22114279  0.77118404  0.82174979     0.05400
H1008       H  0.22075387  0.74788702  0.86722691    -0.00400
H1009       H  0.26796612  0.76618479  0.83600316     0.01100
H1010       H  0.31969820  0.94639177  0.94517725     0.04700
H1011       H  0.31820038  0.97398430  0.90302248     0.06700
H1012       H  0.36493018  0.96660088  0.91171354     0.07500
C1013       C  0.50080108  0.73830566  0.94387150    -0.22100
C1014       C  0.49983195  0.70536365  0.92045828     0.09900
C1015       C  0.45923042  0.66553539  0.91412246     0.10300
C1016       C  0.42040327  0.65940416  0.93181496    -0.17000
C1017       C  0.42147552  0.69196950  0.95608114    -0.27400
C1018       C  0.46223529  0.73234702  0.96155844     0.18600
C1019       C  0.54196149  0.71364838  0.90293053     0.12600
C1020       C  0.45701914  0.62956384  0.88884269    -0.11800
H1021       H  0.38933228  0.62847551  0.92767847     0.12900
C1022       C  0.46655657  0.77018212  0.98537474    -0.22600
H1023       H  0.53202468  0.76897803  0.94841794     0.08500
C1024       C  0.55981991  0.74141548  0.87087453     0.04800
C1025       C  0.60040369  0.74923242  0.85578145    -0.19800
C1026       C  0.62315282  0.72945779  0.87179432    -0.12100
C1027       C  0.60552756  0.70209587  0.90416634     0.13500
C1028       C  0.56513763  0.69464443  0.91947997    -0.22600
C1029       C  0.53567686  0.76218892  0.85231045    -0.05600
H1030       H  0.61401760  0.77011196  0.83092811     0.15100
C1031       C  0.62984914  0.68177287  0.92315922    -0.15800
H1032       H  0.55155639  0.67401687  0.94447934     0.09400
H1033       H  0.47897898  0.80070103  0.96773508     0.07300
H1034       H  0.49035235  0.77689149  0.00874491     0.08500
H1035       H  0.43470145  0.76287668  0.99775630     0.07500
H1036       H  0.47851805  0.61723313  0.90031756     0.02400
H1037       H  0.46857752  0.64321601  0.86000788     0.02900
H1038       H  0.42266408  0.60072673  0.88664532     0.06400
H1039       H  0.55380680  0.78228118  0.82710812     0.05400
H1040       H  0.53202460  0.78455214  0.87258356    -0.00400
H1041       H  0.50225070  0.73557618  0.84310109     0.01100
H1042       H  0.66348806  0.70858459  0.93169456     0.04700
H1043       H  0.63293246  0.65856829  0.90349701     0.06700
H1044       H  0.61215123  0.66262374  0.94887497     0.07500
C1045       C  0.24304015  0.81941165  0.08815810    -0.22100
C1046       C  0.26735049  0.80275209  0.10646425     0.09900
C1047       C  0.28224520  0.81635489  0.14375411     0.10300
C1048       C  0.27153860  0.84555468  0.16222256    -0.17000
C1049       C  0.24728901  0.86260747  0.14402958    -0.27400
C1050       C  0.23310588  0.84947054  0.10626328     0.18600
C1051       C  0.28111108  0.77532500  0.08444565     0.12600
C1052       C  0.31100631  0.80159432  0.16349993    -0.11800
H1053       H  0.28293778  0.85578223  0.19093141     0.12900
C1054       C  0.20995562  0.86881573  0.08394742    -0.22600
H1055       H  0.23289930  0.80974861  0.05910095     0.08500
C1056       C  0.25797147  0.72824942  0.08613362     0.04800
C1057       C  0.27281878  0.70447019  0.06417739    -0.19800
C1058       C  0.30897755  0.72657536  0.03922909    -0.12100
C1059       C  0.33238268  0.77404865  0.03815150     0.13500
C1060       C  0.31802064  0.79751968  0.06071621    -0.22600
C1061       C  0.21669031  0.70314709  0.10984976    -0.05600
H1062       H  0.25476391  0.66827353  0.06507059     0.15100
C1063       C  0.37316561  0.80172368  0.01452681    -0.15800
H1064       H  0.33582380  0.83373513  0.05974502     0.09400
H1065       H  0.20546305  0.85811522  0.05389959     0.07300
H1066       H  0.22987906  0.90585908  0.08448552     0.08500
H1067       H  0.17647742  0.85724001  0.09577673     0.07500
H1068       H  0.34196836  0.81267477  0.14703474     0.02400
H1069       H  0.29314122  0.76471434  0.16615083     0.02900
H1070       H  0.32042253  0.81596505  0.19234701     0.06400
H1071       H  0.20217227  0.66644117  0.10741829     0.05400
H1072       H  0.19138558  0.71150183  0.10035347    -0.00400
H1073       H  0.22437313  0.71234160  0.14003698     0.01100
H1074       H  0.36673261  0.82225952  0.99421415     0.04700
H1075       H  0.38348218  0.78135198  0.99848272     0.06700
H1076       H  0.40126774  0.82433093  0.03308300     0.07500
C1077       C  0.47102676  0.72277388  0.08725023    -0.22100
C1078       C  0.49299507  0.70008655  0.07632420     0.09900
C1079       C  0.47333574  0.66558425  0.04935700     0.10300
C1080       C  0.43336298  0.65641544  0.03219564    -0.17000
C1081       C  0.41287529  0.68137225  0.04092840    -0.27400
C1082       C  0.43091565  0.71361083  0.07015319     0.18600
C1083       C  0.53594385  0.71210463  0.09436994     0.12600
C1084       C  0.49468722  0.63869457  0.03850687    -0.11800
H1085       H  0.41874426  0.63061837  0.01082475     0.12900
C1086       C  0.40937446  0.73975857  0.08263130    -0.22600
H1087       H  0.48580419  0.74828332  0.10885177     0.08500
C1088       C  0.57700335  0.74253350  0.07751848     0.04800
C1089       C  0.61674502  0.75156406  0.09541390    -0.19800
C1090       C  0.61622065  0.73089497  0.12978843    -0.12100
C1091       C  0.57478054  0.70204859  0.14742105     0.13500
C1092       C  0.53529177  0.69289048  0.12928463    -0.22600
C1093       C  0.57872871  0.76572561  0.04094844    -0.05600
H1094       H  0.64833109  0.77440806  0.08230793     0.15100
C1095       C  0.57151610  0.68227844  0.18611309    -0.15800
H1096       H  0.50353621  0.67042823  0.14235308     0.09400
H1097       H  0.42961570  0.76527168  0.10415943     0.07300
H1098       H  0.37655969  0.71719643  0.09554595     0.08500
H1099       H  0.40540167  0.75735083  0.05825509     0.07500
H1100       H  0.49780829  0.62159499  0.06387822     0.02400
H1101       H  0.52817776  0.66089172  0.02645447     0.02900
H1102       H  0.47480721  0.61289342  0.01704817     0.06400
H1103       H  0.61344193  0.78873404  0.03173556     0.05400
H1104       H  0.56202565  0.78555953  0.04467713    -0.00400
H1105       H  0.56164228  0.74081979  0.01820466     0.01100
H1106       H  0.59296001  0.70898077  0.20635145     0.04700
H1107       H  0.58126519  0.65647248  0.18500452     0.06700
H1108       H  0.53701671  0.66569134  0.19722977     0.07500
loop_ 
_geom_bond_atom_site_label_1 
_geom_bond_atom_site_label_2 
_geom_bond_distance 
_geom_bond_site_symmetry_2 
_ccdc_geom_bond_type 
C1            H2   1.107       .  S
C1            C7   1.538       .  S
C1            C6   1.543       .  S
C1            C5   1.539       .  S
C3            H4   1.109       .  S
C3            C9   1.540       .  S
C3            C8   1.537       .  S
C3           C10   1.542       .  S
C5            C8   1.376   1_556  D
C5         C1017   1.492       .  S
C6            C9   1.379   1_556  D
C6          C985   1.491       .  S
C7           C10   1.379   1_556  D
C7          C930   1.498       .  S
C8         C1081   1.494       .  S
C9         C1058   1.497       .  S
C10         C953   1.490       .  S
C11          H12   1.111       .  S
C11          C17   1.540       .  S
C11          C16   1.539       .  S
C11          C15   1.538       .  S
C13          H14   1.111       .  S
C13          C19   1.546       .  S
C13          C18   1.537       .  S
C13          C20   1.538       .  S
C15          C18   1.374   1_554  D
C15         C761   1.492       .  S
C16          C19   1.378   1_554  D
C16         C857   1.493       .  S
C17          C20   1.375   1_554  D
C17         C898   1.493       .  S
C18         C738   1.487       .  S
C19         C793   1.495       .  S
C20         C825   1.489       .  S
C21          C22   1.423       .  A
C21          C26   1.424   1_655  A
C21         C160   1.496       .  S
C22          C23   1.421       .  A
C22         C136   1.499       .  S
C23          C24   1.425   1_565  A
C23          C40   1.491       .  S
C24          C25   1.426   1_655  A
C24         C112   1.499       .  S
C25          C26   1.426   1_545  A
C25          C88   1.501       .  S
C26          C64   1.494       .  S
N27          N28   1.323       .  A
N27          C31   1.343       .  A
N27         Cu35   2.069       .  S
N28          C29   1.348       .  A
N28         Cu34   2.087       .  S
C29          C30   1.385       .  A
C29          H32   1.082       .  S
C30          C31   1.381       .  A
C30         C697   1.478       .  S
C31          H33   1.082       .  S
Cu34         N37   2.087       .  S
Cu35         N45   2.069   1_565  S
Cu36         N38   2.070       .  S
Cu36         N44   2.069       .  S
N37          N38   1.323   1_565  A
N37          C41   1.347       .  A
N38          C39   1.344       .  A
C39          C40   1.383   1_545  A
C39          H42   1.082       .  S
C40          C41   1.387       .  A
C41          H43   1.082       .  S
N44          N45   1.322       .  A
N44          C48   1.346       .  A
N45          C46   1.344       .  A
C46          C47   1.380       .  A
C46          H49   1.082       .  S
C47          C48   1.381       .  A
C47         C770   1.470       .  S
C48          H50   1.082       .  S
N51          N52   1.322       .  A
N51          C55   1.343       .  A
N51         Cu59   2.070       .  S
N52          C53   1.348       .  A
N52         Cu58   2.079       .  S
C53          C54   1.385       .  A
C53          H56   1.082       .  S
C54          C55   1.382       .  A
C54         C674   1.479       .  S
C55          H57   1.082       .  S
Cu58         N61   2.079       .  S
Cu59         N69   2.070   1_545  S
Cu60         N62   2.091       .  S
Cu60         N68   2.090       .  S
N61          N62   1.324   1_545  A
N61          C65   1.346       .  A
N62          C63   1.347       .  A
C63          C64   1.388       .  A
C63          H66   1.082       .  S
C64          C65   1.385   1_565  A
C65          H67   1.082       .  S
N68          N69   1.321       .  A
N68          C72   1.349       .  A
N69          C70   1.343       .  A
C70          C71   1.385       .  A
C70          H73   1.082       .  S
C71          C72   1.391       .  A
C71        C1049   1.491       .  S
C72          H74   1.080       .  S
N75          N76   1.323       .  A
N75          C79   1.345       .  A
N75         Cu83   2.075       .  S
N76          C77   1.347       .  A
N76         Cu82   2.082       .  S
C77          C78   1.384       .  A
C77          H80   1.082       .  S
C78          C79   1.381       .  A
C78         C633   1.477       .  S
C79          H81   1.082       .  S
Cu82         N85   2.082       .  S
Cu83         N93   2.075       .  S
Cu84         N86   2.089       .  S
Cu84         N92   2.089       .  S
N85          N86   1.322       .  A
N85          C89   1.346       .  A
N86          C87   1.347       .  A
C87          C88   1.390       .  A
C87          H90   1.082       .  S
C88          C89   1.388       .  A
C89          H91   1.082       .  S
N92          N93   1.323       .  A
N92          C96   1.348       .  A
N93          C94   1.346       .  A
C94          C95   1.382       .  A
C94          H97   1.082       .  S
C95          C96   1.385       .  A
C95         C866   1.479       .  S
C96          H98   1.082       .  S
N99         N100   1.321       .  A
N99         C103   1.344       .  A
N99        Cu107   2.071   1_455  S
N100        C101   1.347       .  A
N100       Cu106   2.081       .  S
C101        C102   1.389       .  A
C101        H104   1.079       .  S
C102        C103   1.385       .  A
C102        C962   1.487       .  S
C103        H105   1.082       .  S
Cu106       N109   2.082       .  S
Cu107       N117   2.071       .  S
Cu108       N110   2.092       .  S
Cu108       N116   2.092       .  S
N109        N110   1.323   1_455  A
N109        C113   1.346       .  A
N110        C111   1.347       .  A
C111        C112   1.389       .  A
C111        H114   1.082       .  S
C112        C113   1.387   1_655  A
C113        H115   1.082       .  S
N116        N117   1.323       .  A
N116        C120   1.349       .  A
N117        C118   1.344       .  A
C118        C119   1.383       .  A
C118        H121   1.081       .  S
C119        C120   1.387       .  A
C119        C610   1.483       .  S
C120        H122   1.082       .  S
N123        N124   1.321       .  A
N123        C127   1.344       .  A
N123       Cu131   2.067       .  S
N124        C125   1.348       .  A
N124       Cu130   2.085       .  S
C125        C126   1.388       .  A
C125        H128   1.081       .  S
C126        C127   1.385       .  A
C126        C578   1.486       .  S
C127        H129   1.081       .  S
Cu130       N133   2.085       .  S
Cu131       N141   2.065       .  S
Cu132       N134   2.098       .  S
Cu132       N140   2.097       .  S
N133        N134   1.324       .  A
N133        C137   1.347       .  A
N134        C135   1.349       .  A
C135        C136   1.389       .  A
C135        H138   1.081       .  S
C136        C137   1.386       .  A
C137        H139   1.081       .  S
N140        N141   1.322       .  A
N140        C144   1.351       .  A
N141        C142   1.341       .  A
C142        C143   1.382       .  A
C142        H145   1.080       .  S
C143        C144   1.391       .  A
C143       C1090   1.488       .  S
C144        H146   1.082       .  S
N147        N148   1.323       .  A
N147        C151   1.345       .  A
N147       Cu155   2.077   1_655  S
N148        C149   1.347       .  A
N148       Cu154   2.079       .  S
C149        C150   1.383       .  A
C149        H152   1.082       .  S
C150        C151   1.381       .  A
C150        C889   1.476       .  S
C151        H153   1.082       .  S
Cu154       N157   2.080       .  S
Cu155       N165   2.078       .  S
Cu156       N158   2.085       .  S
Cu156       N164   2.085       .  S
N157        N158   1.323   1_655  A
N157        C161   1.346       .  A
N158        C159   1.346       .  A
C159        C160   1.387   1_455  A
C159        H162   1.082       .  S
C160        C161   1.386       .  A
C161        H163   1.082       .  S
N164        N165   1.323       .  A
N164        C168   1.348       .  A
N165        C166   1.345       .  A
C166        C167   1.383       .  A
C166        H169   1.082       .  S
C167        C168   1.385       .  A
C167        C537   1.481       .  S
C168        H170   1.082       .  S
C171        H172   1.112       .  S
C171        C177   1.535       .  S
C171        C176   1.536       .  S
C171        C175   1.534       .  S
C173        H174   1.111       .  S
C173        C179   1.542       .  S
C173        C178   1.547       .  S
C173        C180   1.540       .  S
C175        C178   1.379       .  D
C175        C514   1.493       .  S
C176        C179   1.376       .  D
C176        C441   1.489       .  S
C177        C180   1.374       .  D
C177        C473   1.481       .  S
C178        C569   1.490       .  S
C179        C601   1.493       .  S
C180        C665   1.492       .  S
C181        H182   1.112       .  S
C181        C187   1.536       .  S
C181        C186   1.532       .  S
C181        C185   1.540       .  S
C183        H184   1.109       .  S
C183        C189   1.534       .  S
C183        C188   1.535       .  S
C183        C190   1.541       .  S
C185        C188   1.376       .  D
C185        C354   1.486       .  S
C186        C189   1.372       .  D
C186        C377   1.476       .  S
C187        C190   1.376       .  D
C187        C409   1.492       .  S
C188        C642   1.490       .  S
C189        C546   1.486       .  S
C190        C706   1.487       .  S
C191        C192   1.424   1_545  A
C191        C196   1.424   1_455  A
C191        C282   1.493       .  S
C192        C193   1.424       .  A
C192        C210   1.501   1_565  S
C193        C194   1.425   1_455  A
C193        C306   1.492       .  S
C194        C195   1.423       .  A
C194        C330   1.500       .  S
C195        C196   1.423   1_565  A
C195        C234   1.491       .  S
C196        C258   1.500       .  S
N197        N198   1.321       .  A
N197        C201   1.341       .  A
N197       Cu205   2.058       .  S
N198        C199   1.346       .  A
N198       Cu204   2.081       .  S
C199        C200   1.388       .  A
C199        H202   1.082       .  S
C200        C201   1.382       .  A
C200        C482   1.481       .  S
C201        H203   1.079       .  S
Cu204       N207   2.082       .  S
Cu205       N215   2.058   1_545  S
Cu206       N208   2.087       .  S
Cu206       N214   2.086       .  S
N207        N208   1.323   1_545  A
N207        C211   1.346       .  A
N208        C209   1.347       .  A
C209        C210   1.389   1_565  A
C209        H212   1.081       .  S
C210        C211   1.388       .  A
C211        H213   1.082       .  S
N214        N215   1.321       .  A
N214        C218   1.347       .  A
N215        C216   1.344       .  A
C216        C217   1.381       .  A
C216        H219   1.082       .  S
C217        C218   1.386       .  A
C217        C994   1.477       .  S
C218        H220   1.081       .  S
N221        N222   1.322       .  A
N221        C225   1.343       .  A
N221       Cu229   2.070   1_565  S
N222        C223   1.349       .  A
N222       Cu228   2.087       .  S
C223        C224   1.389       .  A
C223        H226   1.081       .  S
C224        C225   1.383       .  A
C224        C418   1.486       .  S
C225        H227   1.081       .  S
Cu228       N231   2.087       .  S
Cu229       N239   2.070       .  S
Cu230       N232   2.081       .  S
Cu230       N238   2.080       .  S
N231        N232   1.324   1_565  A
N231        C235   1.348       .  A
N232        C233   1.344       .  A
C233        C234   1.384   1_545  A
C233        H236   1.082       .  S
C234        C235   1.386       .  A
C235        H237   1.082       .  S
N238        N239   1.321       .  A
N238        C242   1.349       .  A
N239        C240   1.342       .  A
C240        C241   1.384       .  A
C240        H243   1.080       .  S
C241        C242   1.387       .  A
C241        C729   1.484       .  S
C242        H244   1.082       .  S
N245        N246   1.321       .  A
N245        C249   1.346       .  A
N245       Cu253   2.076   1_455  S
N246        C247   1.346       .  A
N246       Cu252   2.074       .  S
C247        C248   1.384       .  A
C247        H250   1.081       .  S
C248        C249   1.385       .  A
C248        C921   1.480       .  S
C249        H251   1.082       .  S
Cu252       N255   2.074       .  S
Cu253       N263   2.077       .  S
Cu254       N256   2.094       .  S
Cu254       N262   2.094       .  S
N255        N256   1.323   1_455  A
N255        C259   1.344       .  A
N256        C257   1.348       .  A
C257        C258   1.391       .  A
C257        H260   1.082       .  S
C258        C259   1.385   1_655  A
C259        H261   1.082       .  S
N262        N263   1.323       .  A
N262        C266   1.350       .  A
N263        C264   1.344       .  A
C264        C265   1.384       .  A
C264        H267   1.081       .  S
C265        C266   1.389       .  A
C265        C450   1.487       .  S
C266        H268   1.082       .  S
N269        N270   1.322       .  A
N269        C273   1.343       .  A
N269       Cu277   2.072       .  S
N270        C271   1.347       .  A
N270       Cu276   2.072       .  S
C271        C272   1.384       .  A
C271        H274   1.082       .  S
C272        C273   1.384       .  A
C272        C345   1.479       .  S
C273        H275   1.082       .  S
Cu276       N279   2.072       .  S
Cu277       N287   2.073       .  S
Cu278       N280   2.082       .  S
Cu278       N286   2.082       .  S
N279        N280   1.323       .  A
N279        C283   1.344       .  A
N280        C281   1.346       .  A
C281        C282   1.387       .  A
C281        H284   1.082       .  S
C282        C283   1.385       .  A
C283        H285   1.082       .  S
N286        N287   1.321       .  A
N286        C290   1.346       .  A
N287        C288   1.344       .  A
C288        C289   1.387       .  A
C288        H291   1.080       .  S
C289        C290   1.389       .  A
C289        C802   1.491       .  S
C290        H292   1.082       .  S
N293        N294   1.320       .  A
N293        C297   1.340       .  A
N293       Cu301   2.050   1_655  S
N294        C295   1.349       .  A
N294       Cu300   2.088       .  S
C295        C296   1.392       .  A
C295        H298   1.080       .  S
C296        C297   1.381       .  A
C296        C834   1.484       .  S
C297        H299   1.082       .  S
Cu300       N303   2.089       .  S
Cu301       N311   2.050       .  S
Cu302       N304   2.078       .  S
Cu302       N310   2.077       .  S
N303        N304   1.325   1_655  A
N303        C307   1.346       .  A
N304        C305   1.345       .  A
C305        C306   1.384       .  A
C305        H308   1.081       .  S
C306        C307   1.386   1_455  A
C307        H309   1.081       .  S
N310        N311   1.319       .  A
N310        C314   1.347       .  A
N311        C312   1.339       .  A
C312        C313   1.381       .  A
C312        H315   1.080       .  S
C313        C314   1.389       .  A
C313        C386   1.480       .  S
C314        H316   1.082       .  S
N317        N318   1.321       .  A
N317        C321   1.344       .  A
N317       Cu325   2.072       .  S
N318        C319   1.349       .  A
N318       Cu324   2.091       .  S
C319        C320   1.390       .  A
C319        H322   1.082       .  S
C320        C321   1.385       .  A
C320        C505   1.489       .  S
C321        H323   1.080       .  S
Cu324       N327   2.092       .  S
Cu325       N335   2.072       .  S
Cu326       N328   2.084       .  S
Cu326       N334   2.084       .  S
N327        N328   1.323       .  A
N327        C331   1.347       .  A
N328        C329   1.347       .  A
C329        C330   1.387       .  A
C329        H332   1.082       .  S
C330        C331   1.389       .  A
C331        H333   1.082       .  S
N334        N335   1.322       .  A
N334        C338   1.348       .  A
N335        C336   1.345       .  A
C336        C337   1.382       .  A
C336        H339   1.082       .  S
C337        C338   1.385       .  A
C337       C1026   1.478       .  S
C338        H340   1.082       .  S
C341        C342   1.400       .  A
C341        C346   1.399       .  A
C341        H351   1.085       .  S
C342        C343   1.413       .  A
C342        C347   1.478       .  S
C343        C344   1.405       .  A
C343        C348   1.508       .  S
C344        C345   1.406       .  A
C344        H349   1.084       .  S
C345        C346   1.416       .  A
C346        C350   1.508       .  S
C347        C352   1.411       .  A
C347        C356   1.399       .  A
C348        H364   1.110       .  S
C348        H365   1.109       .  S
C348        H366   1.110       .  S
C350        H361   1.111       .  S
C350        H362   1.110       .  S
C350        H363   1.106       .  S
C352        C353   1.403       .  A
C352        C357   1.506       .  S
C353        C354   1.403       .  A
C353        H358   1.083       .  S
C354        C355   1.417       .  A
C355        C356   1.399       .  A
C355        C359   1.504       .  S
C356        H360   1.085       .  S
C357        H367   1.111       .  S
C357        H368   1.109       .  S
C357        H369   1.110       .  S
C359        H370   1.110       .  S
C359        H371   1.101       .  S
C359        H372   1.110       .  S
C373        C374   1.402       .  A
C373        C378   1.400       .  A
C373        H383   1.084       .  S
C374        C375   1.412       .  A
C374        C379   1.479       .  S
C375        C376   1.401       .  A
C375        C380   1.507       .  S
C376        C377   1.401       .  A
C376        H381   1.084       .  S
C377        C378   1.413       .  A
C378        C382   1.507       .  S
C379        C384   1.413       .  A
C379        C388   1.400       .  A
C380        H396   1.109       .  S
C380        H397   1.110       .  S
C380        H398   1.111       .  S
C382        H393   1.110       .  S
C382        H394   1.110       .  S
C382        H395   1.107       .  S
C384        C385   1.402       .  A
C384        C389   1.508       .  S
C385        C386   1.404       .  A
C385        H390   1.084       .  S
C386        C387   1.418       .  A
C387        C388   1.401       .  A
C387        C391   1.509       .  S
C388        H392   1.084       .  S
C389        H399   1.110       .  S
C389        H400   1.110       .  S
C389        H401   1.108       .  S
C391        H402   1.106       .  S
C391        H403   1.110       .  S
C391        H404   1.111       .  S
C405        C406   1.402       .  A
C405        C410   1.404       .  A
C405        H415   1.085       .  S
C406        C407   1.412       .  A
C406        C411   1.487       .  S
C407        C408   1.404       .  A
C407        C412   1.506       .  S
C408        C409   1.405       .  A
C408        H413   1.084       .  S
C409        C410   1.418       .  A
C410        C414   1.505       .  S
C411        C416   1.412       .  A
C411        C420   1.404       .  A
C412        H428   1.109       .  S
C412        H429   1.110       .  S
C412        H430   1.111       .  S
C414        H425   1.110       .  S
C414        H426   1.110       .  S
C414        H427   1.101       .  S
C416        C417   1.404       .  A
C416        C421   1.507       .  S
C417        C418   1.405       .  A
C417        H422   1.085       .  S
C418        C419   1.416       .  A
C419        C420   1.407       .  A
C419        C423   1.506       .  S
C420        H424   1.085       .  S
C421        H431   1.111       .  S
C421        H432   1.109       .  S
C421        H433   1.110       .  S
C423        H434   1.108       .  S
C423        H435   1.110       .  S
C423        H436   1.111       .  S
C437        C438   1.401       .  A
C437        C442   1.402       .  A
C437        H447   1.085       .  S
C438        C439   1.412       .  A
C438        C443   1.486       .  S
C439        C440   1.405       .  A
C439        C444   1.506       .  S
C440        C441   1.404       .  A
C440        H445   1.084       .  S
C441        C442   1.416       .  A
C442        C446   1.504       .  S
C443        C448   1.412       .  A
C443        C452   1.401       .  A
C444        H460   1.109       .  S
C444        H461   1.110       .  S
C444        H462   1.111       .  S
C446        H457   1.111       .  S
C446        H458   1.110       .  S
C446        H459   1.101       .  S
C448        C449   1.407       .  A
C448        C453   1.507       .  S
C449        C450   1.405       .  A
C449        H454   1.084       .  S
C450        C451   1.417       .  A
C451        C452   1.405       .  A
C451        C455   1.507       .  S
C452        H456   1.084       .  S
C453        H463   1.111       .  S
C453        H464   1.109       .  S
C453        H465   1.111       .  S
C455        H466   1.106       .  S
C455        H467   1.109       .  S
C455        H468   1.111       .  S
C469        C470   1.401       .  A
C469        C474   1.399       .  A
C469        H479   1.084       .  S
C470        C471   1.411       .  A
C470        C475   1.480       .  S
C471        C472   1.401       .  A
C471        C476   1.507       .  S
C472        C473   1.402       .  A
C472        H477   1.083       .  S
C473        C474   1.414       .  A
C474        C478   1.502       .  S
C475        C480   1.412       .  A
C475        C484   1.401       .  A
C476        H492   1.108       .  S
C476        H493   1.110       .  S
C476        H494   1.111       .  S
C478        H489   1.111       .  S
C478        H490   1.110       .  S
C478        H491   1.098       .  S
C480        C481   1.403       .  A
C480        C485   1.508       .  S
C481        C482   1.405       .  A
C481        H486   1.084       .  S
C482        C483   1.417       .  A
C483        C484   1.401       .  A
C483        C487   1.507       .  S
C484        H488   1.084       .  S
C485        H495   1.111       .  S
C485        H496   1.109       .  S
C485        H497   1.110       .  S
C487        H498   1.111       .  S
C487        H499   1.107       .  S
C487        H500   1.108       .  S
C501        C502   1.402       .  A
C501        C506   1.407       .  A
C501        H511   1.084       .  S
C502        C503   1.413       .  A
C502        C507   1.488       .  S
C503        C504   1.405       .  A
C503        C508   1.508       .  S
C504        C505   1.405       .  A
C504        H509   1.084       .  S
C505        C506   1.419       .  A
C506        C510   1.508       .  S
C507        C512   1.412       .  A
C507        C516   1.401       .  A
C508        H524   1.109       .  S
C508        H525   1.111       .  S
C508        H526   1.111       .  S
C510        H521   1.111       .  S
C510        H522   1.106       .  S
C510        H523   1.110       .  S
C512        C513   1.406       .  A
C512        C517   1.506       .  S
C513        C514   1.406       .  A
C513        H518   1.083       .  S
C514        C515   1.417       .  A
C515        C516   1.402       .  A
C515        C519   1.501       .  S
C516        H520   1.084       .  S
C517        H527   1.111       .  S
C517        H528   1.109       .  S
C517        H529   1.110       .  S
C519        H530   1.111       .  S
C519        H531   1.095       .  S
C519        H532   1.111       .  S
C533        C534   1.402       .  A
C533        C538   1.404       .  A
C533        H543   1.084       .  S
C534        C535   1.412       .  A
C534        C539   1.486       .  S
C535        C536   1.407       .  A
C535        C540   1.506       .  S
C536        C537   1.404       .  A
C536        H541   1.084       .  S
C537        C538   1.414       .  A
C538        C542   1.507       .  S
C539        C544   1.412       .  A
C539        C548   1.403       .  A
C540        H556   1.110       .  S
C540        H557   1.111       .  S
C540        H558   1.111       .  S
C542        H553   1.111       .  S
C542        H554   1.110       .  S
C542        H555   1.109       .  S
C544        C545   1.403       .  A
C544        C549   1.506       .  S
C545        C546   1.402       .  A
C545        H550   1.085       .  S
C546        C547   1.416       .  A
C547        C548   1.406       .  A
C547        C551   1.506       .  S
C548        H552   1.085       .  S
C549        H559   1.111       .  S
C549        H560   1.110       .  S
C549        H561   1.110       .  S
C551        H562   1.110       .  S
C551        H563   1.108       .  S
C551        H564   1.110       .  S
C565        C566   1.401       .  A
C565        C570   1.404       .  A
C565        H575   1.084       .  S
C566        C567   1.411       .  A
C566        C571   1.485       .  S
C567        C568   1.403       .  A
C567        C572   1.506       .  S
C568        C569   1.404       .  A
C568        H573   1.084       .  S
C569        C570   1.418       .  A
C570        C574   1.504       .  S
C571        C576   1.411       .  A
C571        C580   1.400       .  A
C572        H588   1.109       .  S
C572        H589   1.110       .  S
C572        H590   1.111       .  S
C574        H585   1.111       .  S
C574        H586   1.110       .  S
C574        H587   1.101       .  S
C576        C577   1.407       .  A
C576        C581   1.506       .  S
C577        C578   1.406       .  A
C577        H582   1.085       .  S
C578        C579   1.417       .  A
C579        C580   1.403       .  A
C579        C583   1.506       .  S
C580        H584   1.085       .  S
C581        H591   1.111       .  S
C581        H592   1.110       .  S
C581        H593   1.110       .  S
C583        H594   1.111       .  S
C583        H595   1.109       .  S
C583        H596   1.107       .  S
C597        C598   1.399       .  A
C597        C602   1.402       .  A
C597        H607   1.084       .  S
C598        C599   1.412       .  A
C598        C603   1.486       .  S
C599        C600   1.406       .  A
C599        C604   1.506       .  S
C600        C601   1.404       .  A
C600        H605   1.084       .  S
C601        C602   1.419       .  A
C602        C606   1.502       .  S
C603        C608   1.412       .  A
C603        C612   1.402       .  A
C604        H620   1.110       .  S
C604        H621   1.111       .  S
C604        H622   1.111       .  S
C606        H617   1.111       .  S
C606        H618   1.110       .  S
C606        H619   1.097       .  S
C608        C609   1.406       .  A
C608        C613   1.507       .  S
C609        C610   1.404       .  A
C609        H614   1.084       .  S
C610        C611   1.416       .  A
C611        C612   1.406       .  A
C611        C615   1.508       .  S
C612        H616   1.084       .  S
C613        H623   1.111       .  S
C613        H624   1.110       .  S
C613        H625   1.111       .  S
C615        H626   1.110       .  S
C615        H627   1.108       .  S
C615        H628   1.111       .  S
C629        C630   1.402       .  A
C629        C634   1.403       .  A
C629        H639   1.085       .  S
C630        C631   1.411       .  A
C630        C635   1.483       .  S
C631        C632   1.405       .  A
C631        C636   1.507       .  S
C632        C633   1.404       .  A
C632        H637   1.084       .  S
C633        C634   1.416       .  A
C634        C638   1.508       .  S
C635        C640   1.410       .  A
C635        C644   1.401       .  A
C636        H652   1.109       .  S
C636        H653   1.110       .  S
C636        H654   1.111       .  S
C638        H649   1.110       .  S
C638        H650   1.111       .  S
C638        H651   1.106       .  S
C640        C641   1.404       .  A
C640        C645   1.506       .  S
C641        C642   1.406       .  A
C641        H646   1.084       .  S
C642        C643   1.416       .  A
C643        C644   1.403       .  A
C643        C647   1.507       .  S
C644        H648   1.084       .  S
C645        H655   1.111       .  S
C645        H656   1.110       .  S
C645        H657   1.110       .  S
C647        H658   1.104       .  S
C647        H659   1.107       .  S
C647        H660   1.111       .  S
C661        C662   1.398       .  A
C661        C666   1.401       .  A
C661        H671   1.086       .  S
C662        C663   1.413       .  A
C662        C667   1.485       .  S
C663        C664   1.406       .  A
C663        C668   1.506       .  S
C664        C665   1.403       .  A
C664        H669   1.086       .  S
C665        C666   1.418       .  A
C666        C670   1.500       .  S
C667        C672   1.414       .  A
C667        C676   1.400       .  A
C668        H684   1.109       .  S
C668        H685   1.110       .  S
C668        H686   1.111       .  S
C670        H681   1.111       .  S
C670        H682   1.110       .  S
C670        H683   1.096       .  S
C672        C673   1.406       .  A
C672        C677   1.507       .  S
C673        C674   1.404       .  A
C673        H678   1.084       .  S
C674        C675   1.416       .  A
C675        C676   1.402       .  A
C675        C679   1.506       .  S
C676        H680   1.085       .  S
C677        H687   1.111       .  S
C677        H688   1.109       .  S
C677        H689   1.110       .  S
C679        H690   1.110       .  S
C679        H691   1.107       .  S
C679        H692   1.110       .  S
C693        C694   1.401       .  A
C693        C698   1.403       .  A
C693        H703   1.084       .  S
C694        C695   1.411       .  A
C694        C699   1.480       .  S
C695        C696   1.406       .  A
C695        C700   1.507       .  S
C696        C697   1.404       .  A
C696        H701   1.084       .  S
C697        C698   1.414       .  A
C698        C702   1.507       .  S
C699        C704   1.411       .  A
C699        C708   1.399       .  A
C700        H716   1.110       .  S
C700        H717   1.111       .  S
C700        H718   1.111       .  S
C702        H713   1.109       .  S
C702        H714   1.111       .  S
C702        H715   1.110       .  S
C704        C705   1.404       .  A
C704        C709   1.506       .  S
C705        C706   1.403       .  A
C705        H710   1.084       .  S
C706        C707   1.419       .  A
C707        C708   1.401       .  A
C707        C711   1.506       .  S
C708        H712   1.085       .  S
C709        H719   1.111       .  S
C709        H720   1.110       .  S
C709        H721   1.110       .  S
C711        H722   1.110       .  S
C711        H723   1.102       .  S
C711        H724   1.110       .  S
C725        C726   1.399       .  A
C725        C730   1.402       .  A
C725        H735   1.084       .  S
C726        C727   1.411       .  A
C726        C731   1.483       .  S
C727        C728   1.408       .  A
C727        C732   1.506       .  S
C728        C729   1.406       .  A
C728        H733   1.083       .  S
C729        C730   1.417       .  A
C730        C734   1.507       .  S
C731        C736   1.411       .  A
C731        C740   1.401       .  A
C732        H748   1.110       .  S
C732        H749   1.110       .  S
C732        H750   1.111       .  S
C734        H745   1.111       .  S
C734        H746   1.107       .  S
C734        H747   1.109       .  S
C736        C737   1.406       .  A
C736        C741   1.505       .  S
C737        C738   1.404       .  A
C737        H742   1.085       .  S
C738        C739   1.413       .  A
C739        C740   1.402       .  A
C739        C743   1.505       .  S
C740        H744   1.085       .  S
C741        H751   1.111       .  S
C741        H752   1.110       .  S
C741        H753   1.110       .  S
C743        H754   1.111       .  S
C743        H755   1.107       .  S
C743        H756   1.104   1_556  S
C757        C758   1.399       .  A
C757        C762   1.401       .  A
C757        H767   1.085       .  S
C758        C759   1.408       .  A
C758        C763   1.479       .  S
C759        C760   1.403       .  A
C759        C764   1.505       .  S
C760        C761   1.407       .  A
C760        H765   1.084       .  S
C761        C762   1.418       .  A
C762        C766   1.505       .  S
C763        C768   1.411       .  A
C763        C772   1.403       .  A
C764        H780   1.109       .  S
C764        H781   1.110       .  S
C764        H782   1.111       .  S
C766        H777   1.110       .  S
C766        H778   1.111       .  S
C766        H779   1.098       .  S
C768        C769   1.402       .  A
C768        C773   1.506       .  S
C769        C770   1.402       .  A
C769        H774   1.085       .  S
C770        C771   1.413       .  A
C771        C772   1.403       .  A
C771        C775   1.507       .  S
C772        H776   1.085       .  S
C773        H783   1.111       .  S
C773        H784   1.110       .  S
C773        H785   1.110       .  S
C775        H786   1.110       .  S
C775        H787   1.108       .  S
C775        H788   1.111       .  S
C789        C790   1.398       .  A
C789        C794   1.399       .  A
C789        H799   1.086       .  S
C790        C791   1.411       .  A
C790        C795   1.484       .  S
C791        C792   1.407       .  A
C791        C796   1.506       .  S
C792        C793   1.405       .  A
C792        H797   1.083       .  S
C793        C794   1.421       .  A
C794        C798   1.504       .  S
C795        C800   1.411       .  A
C795        C804   1.400       .  A
C796        H812   1.109       .  S
C796        H813   1.110       .  S
C796        H814   1.111       .  S
C798        H809   1.111   1_556  S
C798        H810   1.110       .  S
C798        H811   1.098       .  S
C800        C801   1.405       .  A
C800        C805   1.508       .  S
C801        C802   1.407       .  A
C801        H806   1.084       .  S
C802        C803   1.420       .  A
C803        C804   1.405       .  A
C803        C807   1.506       .  S
C804        H808   1.085       .  S
C805        H815   1.111       .  S
C805        H816   1.110       .  S
C805        H817   1.110       .  S
C807        H818   1.108       .  S
C807        H819   1.108       .  S
C807        H820   1.111       .  S
C821        C822   1.400       .  A
C821        C826   1.402       .  A
C821        H831   1.085       .  S
C822        C823   1.409       .  A
C822        C827   1.479       .  S
C823        C824   1.402       .  A
C823        C828   1.506       .  S
C824        C825   1.406       .  A
C824        H829   1.085       .  S
C825        C826   1.417       .  A
C826        C830   1.505       .  S
C827        C832   1.408       .  A
C827        C836   1.402       .  A
C828        H844   1.110       .  S
C828        H845   1.110       .  S
C828        H846   1.111       .  S
C830        H841   1.110       .  S
C830        H842   1.111       .  S
C830        H843   1.101       .  S
C832        C833   1.402       .  A
C832        C837   1.507       .  S
C833        C834   1.407       .  A
C833        H838   1.083       .  S
C834        C835   1.416       .  A
C835        C836   1.406       .  A
C835        C839   1.506       .  S
C836        H840   1.084       .  S
C837        H847   1.111       .  S
C837        H848   1.110       .  S
C837        H849   1.110       .  S
C839        H850   1.107       .  S
C839        H851   1.110       .  S
C839        H852   1.111       .  S
C853        C854   1.400       .  A
C853        C858   1.403       .  A
C853        H863   1.085       .  S
C854        C855   1.411       .  A
C854        C859   1.482       .  S
C855        C856   1.403       .  A
C855        C860   1.506       .  S
C856        C857   1.404       .  A
C856        H861   1.085       .  S
C857        C858   1.419       .  A
C858        C862   1.506       .  S
C859        C864   1.411       .  A
C859        C868   1.401       .  A
C860        H876   1.110       .  S
C860        H877   1.109       .  S
C860        H878   1.111       .  S
C862        H873   1.110   1_554  S
C862        H874   1.110       .  S
C862        H875   1.105   1_554  S
C864        C865   1.406       .  A
C864        C869   1.507       .  S
C865        C866   1.404       .  A
C865        H870   1.084       .  S
C866        C867   1.415       .  A
C867        C868   1.404       .  A
C867        C871   1.505       .  S
C868        H872   1.084       .  S
C869        H879   1.111       .  S
C869        H880   1.111       .  S
C869        H881   1.109       .  S
C871        H882   1.110       .  S
C871        H883   1.107       .  S
C871        H884   1.110       .  S
C885        C886   1.402       .  A
C885        C890   1.405       .  A
C885        H895   1.084       .  S
C886        C887   1.412       .  A
C886        C891   1.481       .  S
C887        C888   1.405       .  A
C887        C892   1.507       .  S
C888        C889   1.402       .  A
C888        H893   1.084       .  S
C889        C890   1.412       .  A
C890        C894   1.505       .  S
C891        C896   1.411       .  A
C891        C900   1.397       .  A
C892        H908   1.111       .  S
C892        H909   1.109       .  S
C892        H910   1.111       .  S
C894        H905   1.110       .  S
C894        H906   1.111       .  S
C894        H907   1.110       .  S
C896        C897   1.406       .  A
C896        C901   1.506       .  S
C897        C898   1.404       .  A
C897        H902   1.084       .  S
C898        C899   1.421       .  A
C899        C900   1.401       .  A
C899        C903   1.503       .  S
C900        H904   1.085       .  S
C901        H911   1.111       .  S
C901        H912   1.110       .  S
C901        H913   1.109       .  S
C903        H914   1.110       .  S
C903        H915   1.097   1_554  S
C903        H916   1.111   1_554  S
C917        C918   1.404       .  A
C917        C922   1.408       .  A
C917        H927   1.084       .  S
C918        C919   1.413       .  A
C918        C923   1.487       .  S
C919        C920   1.403       .  A
C919        C924   1.508       .  S
C920        C921   1.402       .  A
C920        H925   1.084       .  S
C921        C922   1.415       .  A
C922        C926   1.507       .  S
C923        C928   1.410       .  A
C923        C932   1.401       .  A
C924        H940   1.109       .  S
C924        H941   1.111       .  S
C924        H942   1.111       .  S
C926        H937   1.109       .  S
C926        H938   1.111       .  S
C926        H939   1.110       .  S
C928        C929   1.405       .  A
C928        C933   1.506       .  S
C929        C930   1.407       .  A
C929        H934   1.084       .  S
C930        C931   1.419       .  A
C931        C932   1.405       .  A
C931        C935   1.508       .  S
C932        H936   1.084       .  S
C933        H943   1.111       .  S
C933        H944   1.109       .  S
C933        H945   1.110       .  S
C935        H946   1.106       .  S
C935        H947   1.106       .  S
C935        H948   1.111       .  S
C949        C950   1.399       .  A
C949        C954   1.402       .  A
C949        H959   1.085       .  S
C950        C951   1.410       .  A
C950        C955   1.481       .  S
C951        C952   1.404       .  A
C951        C956   1.506       .  S
C952        C953   1.404       .  A
C952        H957   1.084       .  S
C953        C954   1.419       .  A
C954        C958   1.504       .  S
C955        C960   1.409       .  A
C955        C964   1.400       .  A
C956        H972   1.110       .  S
C956        H973   1.109       .  S
C956        H974   1.111       .  S
C958        H969   1.110       .  S
C958        H970   1.110   1_554  S
C958        H971   1.099   1_554  S
C960        C961   1.403       .  A
C960        C965   1.507       .  S
C961        C962   1.407       .  A
C961        H966   1.084       .  S
C962        C963   1.419       .  A
C963        C964   1.406       .  A
C963        C967   1.506       .  S
C964        H968   1.084       .  S
C965        H975   1.111       .  S
C965        H976   1.110       .  S
C965        H977   1.109       .  S
C967        H978   1.111       .  S
C967        H979   1.110       .  S
C967        H980   1.107       .  S
C981        C982   1.398       .  A
C981        C986   1.399       .  A
C981        H991   1.085       .  S
C982        C983   1.410       .  A
C982        C987   1.480       .  S
C983        C984   1.405       .  A
C983        C988   1.505       .  S
C984        C985   1.405       .  A
C984        H989   1.084       .  S
C985        C986   1.420       .  A
C986        C990   1.505       .  S
C987        C992   1.411       .  A
C987        C996   1.401       .  A
C988       H1004   1.110       .  S
C988       H1005   1.110       .  S
C988       H1006   1.111       .  S
C990       H1001   1.110       .  S
C990       H1002   1.110   1_556  S
C990       H1003   1.101       .  S
C992        C993   1.403       .  A
C992        C997   1.507       .  S
C993        C994   1.403       .  A
C993        H998   1.085       .  S
C994        C995   1.417       .  A
C995        C996   1.403       .  A
C995        C999   1.508       .  S
C996       H1000   1.085       .  S
C997       H1007   1.111       .  S
C997       H1008   1.110       .  S
C997       H1009   1.110       .  S
C999       H1010   1.111       .  S
C999       H1011   1.107       .  S
C999       H1012   1.110       .  S
C1013      C1014   1.398       .  A
C1013      C1018   1.400       .  A
C1013      H1023   1.084       .  S
C1014      C1015   1.411       .  A
C1014      C1019   1.482       .  S
C1015      C1016   1.406       .  A
C1015      C1020   1.505       .  S
C1016      C1017   1.404       .  A
C1016      H1021   1.084       .  S
C1017      C1018   1.419       .  A
C1018      C1022   1.502       .  S
C1019      C1024   1.412       .  A
C1019      C1028   1.402       .  A
C1020      H1036   1.110       .  S
C1020      H1037   1.110       .  S
C1020      H1038   1.111       .  S
C1022      H1033   1.110       .  S
C1022      H1034   1.110   1_556  S
C1022      H1035   1.098       .  S
C1024      C1025   1.405       .  A
C1024      C1029   1.506       .  S
C1025      C1026   1.403       .  A
C1025      H1030   1.083       .  S
C1026      C1027   1.413       .  A
C1027      C1028   1.405       .  A
C1027      C1031   1.506       .  S
C1028      H1032   1.084       .  S
C1029      H1039   1.111       .  S
C1029      H1040   1.110       .  S
C1029      H1041   1.110       .  S
C1031      H1042   1.110       .  S
C1031      H1043   1.109       .  S
C1031      H1044   1.111       .  S
C1045      C1046   1.402       .  A
C1045      C1050   1.407       .  A
C1045      H1055   1.084       .  S
C1046      C1047   1.410       .  A
C1046      C1051   1.484       .  S
C1047      C1048   1.404       .  A
C1047      C1052   1.507       .  S
C1048      C1049   1.408       .  A
C1048      H1053   1.084       .  S
C1049      C1050   1.418       .  A
C1050      C1054   1.506       .  S
C1051      C1056   1.411       .  A
C1051      C1060   1.397       .  A
C1052      H1068   1.110       .  S
C1052      H1069   1.108       .  S
C1052      H1070   1.111       .  S
C1054      H1065   1.111       .  S
C1054      H1066   1.110       .  S
C1054      H1067   1.107       .  S
C1056      C1057   1.408       .  A
C1056      C1061   1.506       .  S
C1057      C1058   1.407       .  A
C1057      H1062   1.084       .  S
C1058      C1059   1.422       .  A
C1059      C1060   1.400       .  A
C1059      C1063   1.504       .  S
C1060      H1064   1.085       .  S
C1061      H1071   1.111       .  S
C1061      H1072   1.110       .  S
C1061      H1073   1.108       .  S
C1063      H1074   1.111   1_554  S
C1063      H1075   1.098   1_554  S
C1063      H1076   1.110       .  S
C1077      C1078   1.401       .  A
C1077      C1082   1.406       .  A
C1077      H1087   1.083       .  S
C1078      C1079   1.410       .  A
C1078      C1083   1.482       .  S
C1079      C1080   1.402       .  A
C1079      C1084   1.507       .  S
C1080      C1081   1.406       .  A
C1080      H1085   1.083       .  S
C1081      C1082   1.417       .  A
C1082      C1086   1.506       .  S
C1083      C1088   1.412       .  A
C1083      C1092   1.397       .  A
C1084      H1100   1.110       .  S
C1084      H1101   1.109       .  S
C1084      H1102   1.111       .  S
C1086      H1097   1.110       .  S
C1086      H1098   1.107       .  S
C1086      H1099   1.104       .  S
C1088      C1089   1.408       .  A
C1088      C1093   1.507       .  S
C1089      C1090   1.406       .  A
C1089      H1094   1.084       .  S
C1090      C1091   1.421       .  A
C1091      C1092   1.403       .  A
C1091      C1095   1.508       .  S
C1092      H1096   1.084       .  S
C1093      H1103   1.111       .  S
C1093      H1104   1.110       .  S
C1093      H1105   1.110       .  S
C1095      H1106   1.110       .  S
C1095      H1107   1.106       .  S
C1095      H1108   1.111       .  S
