geometry optimzed in LAMMPS
_audit_creation_date              2020-11-30 
_audit_creation_method            'lammps2cif' 
_symmetry_space_group_name_H-M    'P1' 
_symmetry_Int_Tables_number       1 
_symmetry_cell_setting            triclinic 
loop_ 
_symmetry_equiv_pos_as_xyz 
  x,y,z 
_cell_length_a                    40.70935383 
_cell_length_b                    40.687615294031566 
_cell_length_c                    40.69457174979801 
_cell_angle_alpha                 90.21608115421182 
_cell_angle_beta                  89.85735709070838 
_cell_angle_gamma                 89.89999736543744 
loop_ 
_atom_site_label 
_atom_site_type_symbol 
_atom_site_fract_x 
_atom_site_fract_y 
_atom_site_fract_z 
_atom_site_charge 
C1          C  0.15493300  0.72098402  0.96979478     0.79300
N2          N  0.12170981  0.72218286  0.97023949    -0.79000
C3          C  0.10539893  0.72309312  0.99920866     0.81700
N4          N  0.12250709  0.72407513  0.02757659    -0.79000
C5          C  0.15573712  0.72345340  0.02739051     0.81800
N6          N  0.17177515  0.72175083  0.99835667    -0.80700
C7          C  0.32945270  0.60420214  0.02781487     0.79300
N8          N  0.33169259  0.57100951  0.02668997    -0.79000
C9          C  0.33429227  0.55512801  0.99742851     0.81700
N10         N  0.33551907  0.57284618  0.96911849    -0.79000
C11         C  0.33388791  0.60633152  0.96985259     0.81800
N12         N  0.33061701  0.62165288  0.99943461    -0.80700
C13         C  0.91754484  0.22185303  0.02827575     0.79300
N14         N  0.90146627  0.22017160  0.99926468    -0.79000
C15         C  0.91833261  0.22090812  0.97064213     0.81700
N16         N  0.95139823  0.22300751  0.97083938    -0.79000
C17         C  0.96763757  0.22412379  0.99973230     0.81800
N18         N  0.95076874  0.22341274  0.02839895    -0.80700
C19         C  0.72988851  0.35831322  0.97071672     0.79300
N20         N  0.72529682  0.39145919  0.97172040    -0.79000
C21         C  0.72306162  0.40751387  0.00105534     0.81700
N22         N  0.72625441  0.39035808  0.02945166    -0.79000
C23         C  0.73098869  0.35731769  0.02889853     0.81800
N24         N  0.73268604  0.34156386  0.99947432    -0.80700
C25         C  0.82203506  0.94676334  0.12557204     0.79300
N26         N  0.82971386  0.94538830  0.09333031    -0.79000
C27         C  0.83174896  0.97327354  0.07554645     0.81700
N28         N  0.82687474  0.00270080  0.09042059    -0.79000
C29         C  0.82004828  0.00445996  0.12295513     0.81800
N30         N  0.81697656  0.97620240  0.14036692    -0.80700
C31         C  0.65677309  0.00732245  0.30887426     0.79300
N32         N  0.67278329  0.97796577  0.30850477    -0.79000
C33         C  0.65591393  0.94912207  0.31076234     0.81700
N34         N  0.62268083  0.95027333  0.31326028    -0.79000
C35         C  0.60627675  0.97938521  0.31385155     0.81800
N36         N  0.62349916  0.00774200  0.31110166    -0.80700
C37         C  0.24745002  0.01018168  0.87828582     0.79300
N38         N  0.24448778  0.00979779  0.91132861    -0.79000
C39         C  0.24238124  0.98102004  0.92785690     0.81700
N40         N  0.24394987  0.95236783  0.91095764    -0.79000
C41         C  0.24682187  0.95223492  0.87777208     0.81800
N42         N  0.24898347  0.98126363  0.86178953    -0.80700
C43         C  0.41160936  0.95217298  0.70625686     0.79300
N44         N  0.39573883  0.98145918  0.70436078    -0.79000
C45         C  0.41274732  0.00976524  0.70009000     0.81700
N46         N  0.44602100  0.00854652  0.69808661    -0.79000
C47         C  0.46238648  0.97955601  0.69997617     0.81800
N48         N  0.44491855  0.95141213  0.70371387    -0.80700
C49         C  0.91589281  0.74081943  0.03138231     0.79300
N50         N  0.94904666  0.73927017  0.03128208    -0.79000
C51         C  0.96573570  0.73919159  0.00255371     0.81700
N52         N  0.94901543  0.73951397  0.97380595    -0.79000
C53         C  0.91577851  0.74024706  0.97381265     0.81800
N54         N  0.89923829  0.74112225  0.00268739    -0.80700
C55         C  0.72878306  0.59994979  0.03088814     0.79300
N56         N  0.72712764  0.56656940  0.03083078    -0.79000
C57         C  0.72560756  0.54941934  0.00217531     0.81700
N58         N  0.72569985  0.56578184  0.97309892    -0.79000
C59         C  0.72756275  0.59913479  0.97265256     0.81800
N60         N  0.72946144  0.61582358  0.00162031    -0.80700
C61         C  0.15754630  0.21860486  0.97199740     0.79300
N62         N  0.12435448  0.22002119  0.97138854    -0.79000
C63         C  0.10702311  0.21875547  0.99967975     0.81700
N64         N  0.12274871  0.21684031  0.02872645    -0.79000
C65         C  0.15583264  0.21522980  0.02933445     0.81800
N66         N  0.17325715  0.21570514  0.00105975    -0.80700
C67         C  0.33412984  0.36244317  0.97215238     0.79300
N68         N  0.33351728  0.34632959  0.00144186    -0.79000
C69         C  0.33502950  0.36314127  0.03040561     0.81700
N70         N  0.33761678  0.39646243  0.02986228    -0.79000
C71         C  0.33842747  0.41290301  0.00088098     0.81800
N72         N  0.33652319  0.39570023  0.97232524    -0.80700
C73         C  0.80904509  0.94988725  0.88708205     0.79300
N74         N  0.81796217  0.94959235  0.91890884    -0.79000
C75         C  0.82397099  0.97779767  0.93545334     0.81700
N76         N  0.82035512  0.00705956  0.91992659    -0.79000
C77         C  0.81096854  0.00791254  0.88791022     0.81800
N78         N  0.80534434  0.97914621  0.87174290    -0.80700
C79         C  0.65581729  0.00899371  0.69292191     0.79300
N80         N  0.62236637  0.00987906  0.69161095    -0.79000
C81         C  0.60475438  0.98152385  0.68937280     0.81700
N82         N  0.62088069  0.95229984  0.68888428    -0.79000
C83         C  0.65414645  0.95089572  0.68977347     0.81800
N84         N  0.67138685  0.97937331  0.69189091    -0.80700
C85         C  0.27508675  0.00874554  0.11664928     0.79300
N86         N  0.27487545  0.97998527  0.13307499    -0.79000
C87         C  0.27140985  0.95125875  0.11659093     0.81700
N88         N  0.26671795  0.95168349  0.08355270    -0.79000
C89         C  0.26622225  0.98069553  0.06706475     0.81800
N90         N  0.27039304  0.00905016  0.08389439    -0.80700
C91         C  0.41276882  0.95170450  0.31042837     0.79300
N92         N  0.39740303  0.98130278  0.30750681    -0.79000
C93         C  0.41479016  0.00985979  0.30786880     0.81700
N94         N  0.44800240  0.00856696  0.31022947    -0.79000
C95         C  0.46381380  0.97924995  0.31266536     0.81800
N96         N  0.44601402  0.95103328  0.31284315    -0.80700
C97         C  0.00971368  0.09978189  0.75871458     0.79300
N98         N  0.00944129  0.06680526  0.76254448    -0.79000
C99         C  0.03777058  0.04994789  0.76600416     0.81700
N100        N  0.06676812  0.06606396  0.76499167    -0.79000
C101        C  0.06731273  0.09909750  0.76152617     0.81800
N102        N  0.03876851  0.11598232  0.75829691    -0.80700
C103        C  0.00711112  0.27480310  0.61853483     0.79300
N104        N  0.03532314  0.27561349  0.63638770    -0.79000
C105        C  0.06528861  0.27602843  0.62137993     0.81700
N106        N  0.06665226  0.27632590  0.58786725    -0.79000
C107        C  0.03862434  0.27586315  0.56963855     0.81800
N108        N  0.00908045  0.27527977  0.58526095    -0.80700
C109        C  0.05946658  0.85892732  0.76647032     0.79300
N110        N  0.06041349  0.89209850  0.76772153    -0.79000
C111        C  0.03277592  0.91005202  0.76473535     0.81700
N112        N  0.00349365  0.89484437  0.76128543    -0.79000
C113        C  0.00215998  0.86162569  0.75983372     0.81800
N114        N  0.03018966  0.84374436  0.76229848    -0.80700
C115        C  0.00143122  0.67622818  0.62452984     0.79300
N116        N  0.00234623  0.67370954  0.59118761    -0.79000
C117        C  0.03140574  0.67254310  0.57465053     0.81700
N118        N  0.05982161  0.67496132  0.59208517    -0.79000
C119        C  0.05941149  0.67819324  0.62539698     0.81800
N120        N  0.03008489  0.67862461  0.64131531    -0.80700
C121        C  0.06274070  0.86272499  0.26011333     0.79300
N122        N  0.06118447  0.89596237  0.26182850    -0.79000
C123        C  0.03162728  0.91110023  0.26528420     0.81700
N124        N  0.00398645  0.89292279  0.26794960    -0.79000
C125        C  0.00565933  0.85974936  0.26692031     0.81800
N126        N  0.03499933  0.84472052  0.26252729    -0.80700
C127        C  0.06439226  0.67551243  0.37969248     0.79300
N128        N  0.03501164  0.67494632  0.36393415    -0.79000
C129        C  0.00625760  0.67229385  0.38089640     0.81700
N130        N  0.00735049  0.67065799  0.41425001    -0.79000
C131        C  0.03652847  0.67085806  0.43067541     0.81800
N132        N  0.06490325  0.67307846  0.41302425    -0.80700
C133        C  0.00637411  0.10181056  0.25171406     0.79300
N134        N  0.00498370  0.06892935  0.25593924    -0.79000
C135        C  0.03285896  0.05100744  0.25667870     0.81700
N136        N  0.06221037  0.06592799  0.25226537    -0.79000
C137        C  0.06367512  0.09880398  0.24740718     0.81800
N138        N  0.03569407  0.11684130  0.24744817    -0.80700
C139        C  0.06229225  0.27590323  0.37504192     0.79300
N140        N  0.03258597  0.27575610  0.35983383    -0.79000
C141        C  0.00422879  0.27643422  0.37750214     0.81700
N142        N  0.00581588  0.27713594  0.41084456    -0.79000
C143        C  0.03521029  0.27805841  0.42658318     0.81800
N144        N  0.06334832  0.27712536  0.40848724    -0.80700
C145        C  0.28723898  0.50781606  0.38276511     0.79300
N146        N  0.28491268  0.47969474  0.36479567    -0.79000
C147        C  0.28212647  0.45020683  0.37990431     0.81700
N148        N  0.28214045  0.44866905  0.41303065    -0.79000
C149        C  0.28461418  0.47641934  0.43104097     0.81800
N150        N  0.28717167  0.50590551  0.41597303    -0.80700
C151        C  0.15616064  0.45039491  0.20336210     0.79300
N152        N  0.17283135  0.47921831  0.20492987    -0.79000
C153        C  0.15679813  0.50853082  0.20477119     0.81700
N154        N  0.12339104  0.50866035  0.20257342    -0.79000
C155        C  0.10621635  0.48003073  0.20071221     0.81800
N156        N  0.12282788  0.45101363  0.20163479    -0.80700
O157        O  0.25237469  0.74199043  0.15016213    -0.87400
O158        O  0.21438429  0.69792204  0.32608155    -0.87600
O159        O  0.20912350  0.66005578  0.21977688    -0.89200
O160        O  0.18256811  0.76166318  0.24103427    -0.88000
O161        O  0.21015500  0.80724164  0.25951198    -0.87600
O162        O  0.25764685  0.63165065  0.21979497    -0.89000
O163        O  0.18495197  0.70011156  0.27817623    -0.87400
O164        O  0.20747800  0.72214208  0.17748456    -0.87000
Zr165      Zr  0.22196917  0.71680492  0.23451113     2.84300
O166        O  0.23792163  0.74707959  0.28043523    -1.09000
O167        O  0.26812179  0.70134949  0.20369473    -1.09700
C168        C  0.22241092  0.73192375  0.15144910     1.05700
C169        C  0.18742992  0.69533442  0.30940077     1.05600
C170        C  0.22610518  0.63343028  0.21634051     1.08600
C171        C  0.18389929  0.79173909  0.25131477     1.06400
H172        H  0.24334109  0.66435121  0.27401304     0.32000
O173        O  0.25529692  0.68353864  0.26691045    -1.30000
H174        H  0.23671704  0.77666308  0.20396592     0.31600
O175        O  0.25099357  0.76334482  0.21738557    -1.31600
O176        O  0.31727559  0.71669885  0.34987677    -0.87400
O177        O  0.35492745  0.76276732  0.17372895    -0.88900
O178        O  0.30055551  0.62974074  0.28047464    -0.87500
O179        O  0.25248229  0.80564447  0.32045573    -0.87500
O180        O  0.26905251  0.83075487  0.21687155    -0.87200
O181        O  0.31534828  0.65522217  0.17905124    -0.87000
O182        O  0.38648667  0.70184014  0.26154094    -0.87400
O183        O  0.35864326  0.80366378  0.28165806    -0.86900
O184        O  0.35929338  0.65534061  0.24437376    -0.87900
O185        O  0.30994651  0.83162355  0.27994470    -0.87100
O186        O  0.28131629  0.65615367  0.32628275    -0.87500
O187        O  0.31151804  0.70314294  0.14975369    -0.87200
O188        O  0.28687309  0.80332351  0.17060896    -0.86900
O189        O  0.25407182  0.75794608  0.35027537    -0.87300
O190        O  0.36263682  0.73630668  0.32249229    -0.87600
O191        O  0.38362631  0.76296995  0.22193236    -0.88900
Zr192      Zr  0.27120250  0.71388217  0.31285375     2.83100
Zr193      Zr  0.29791970  0.74760089  0.18744336     2.83500
Zr194      Zr  0.30180527  0.66879343  0.23606947     2.84100
Zr195      Zr  0.26747325  0.79328187  0.26355990     2.83400
Zr196      Zr  0.34701268  0.74615318  0.26600331     2.84200
O197        O  0.31399069  0.77895100  0.23291690    -1.09500
O198        O  0.31773417  0.69924238  0.28218316    -1.09000
C199        C  0.34764390  0.72542795  0.34816856     1.05700
C200        C  0.38171693  0.76647209  0.19046459     1.08300
C201        C  0.29195923  0.63031896  0.31086533     1.05800
C202        C  0.24969091  0.78933047  0.34751359     1.06200
C203        C  0.27655252  0.82902626  0.18601839     1.05800
C204        C  0.31613208  0.67185133  0.15206788     1.05300
C205        C  0.38517280  0.67123800  0.25336638     1.05800
C206        C  0.34121401  0.83028072  0.28441497     1.05300
H207        H  0.35058224  0.70811479  0.20723691     0.32000
O208        O  0.33165269  0.71503634  0.21983656    -1.30600
H209        H  0.30778163  0.77324899  0.31575595     0.32000
O210        O  0.30078671  0.76083303  0.29676515    -1.32000
C211        C  0.41863854  0.23963622  0.47011572     0.79300
N212        N  0.40174938  0.24082990  0.49894739    -0.79000
C213        C  0.41746109  0.23728202  0.52802628     0.81700
N214        N  0.45039897  0.23298012  0.52821796    -0.79000
C215        C  0.46747632  0.23143197  0.49974980     0.81800
N216        N  0.45155602  0.23472957  0.47073961    -0.80700
C217        C  0.23673215  0.09996433  0.46993854     0.79300
N218        N  0.23960176  0.11665504  0.49893161    -0.79000
C219        C  0.23839020  0.10037702  0.52819952     0.81700
N220        N  0.23365378  0.06731788  0.52800696    -0.79000
C221        C  0.23019507  0.05047646  0.49934667     0.81800
N222        N  0.23191111  0.06695919  0.47049745    -0.80700
O223        O  0.27219920  0.12863379  0.77899776    -0.87400
O224        O  0.31668402  0.30373113  0.82389277    -0.87600
O225        O  0.35804271  0.19595003  0.82549042    -0.89200
O226        O  0.25635013  0.21506257  0.85120350    -0.88000
O227        O  0.21065192  0.23461496  0.82444281    -0.87600
O228        O  0.38664550  0.19918053  0.77722774    -0.89000
O229        O  0.31494856  0.25533027  0.85212194    -0.87400
O230        O  0.29002035  0.15438396  0.82605734    -0.87000
Zr231      Zr  0.30121516  0.21179846  0.81294169     2.84300
O232        O  0.27042975  0.25834782  0.79851222    -1.09000
O233        O  0.31740952  0.18271221  0.76602551    -1.09700
C234        C  0.27938249  0.12921290  0.80979943     1.05700
C235        C  0.31893697  0.28677020  0.85063833     1.05600
C236        C  0.38475388  0.19337644  0.80836332     1.08600
C237        C  0.22609260  0.22410675  0.84995181     1.06400
H238        H  0.35296696  0.25333585  0.79412027     0.32000
O239        O  0.33403740  0.24651371  0.78158903    -1.30000
H240        H  0.24087600  0.18286551  0.79543727     0.31600
O241        O  0.25483699  0.19678978  0.78229957    -1.31600
O242        O  0.29993328  0.33214938  0.72278091    -0.87400
O243        O  0.25746964  0.15660602  0.67753016    -0.88900
O244        O  0.38768773  0.26237200  0.73833017    -0.87500
O245        O  0.21106392  0.29983419  0.78284588    -0.87500
O246        O  0.18669725  0.19781425  0.76147805    -0.87200
O247        O  0.36314495  0.16189099  0.71743917    -0.87000
O248        O  0.31914198  0.24646303  0.65074378    -0.87400
O249        O  0.21594813  0.26294266  0.67602898    -0.86900
O250        O  0.36481346  0.22711586  0.67751579    -0.87900
O251        O  0.18709802  0.26078080  0.72427975    -0.87100
O252        O  0.35996726  0.30787065  0.75747379    -0.87500
O253        O  0.31581627  0.13185056  0.71973474    -0.87200
O254        O  0.21451827  0.15257149  0.74170083    -0.86900
O255        O  0.25875058  0.32966441  0.78241329    -0.87300
O256        O  0.28176781  0.30571195  0.67618522    -0.87600
O257        O  0.25892155  0.20509318  0.64931079    -0.88900
Zr258      Zr  0.30306213  0.29248178  0.76652330     2.83100
Zr259      Zr  0.27121551  0.16829244  0.73499816     2.83500
Zr260      Zr  0.34953853  0.21758922  0.73423907     2.84100
Zr261      Zr  0.22463252  0.24329475  0.76734875     2.83400
Zr262      Zr  0.27323237  0.24823990  0.68850631     2.84200
O263        O  0.24012654  0.21417301  0.72012467    -1.09500
O264        O  0.31930029  0.26399097  0.71917155    -1.09000
C265        C  0.29168777  0.33116479  0.69227076     1.05700
C266        C  0.25499705  0.17365585  0.65082448     1.08300
C267        C  0.38589846  0.29267270  0.74722107     1.05800
C268        C  0.22733630  0.32696610  0.78586475     1.06200
C269        C  0.18857993  0.16766032  0.75180714     1.05800
C270        C  0.34703439  0.13475052  0.71517522     1.05300
C271        C  0.34956684  0.23767214  0.65191019     1.05800
C272        C  0.18908644  0.26563847  0.69296822     1.05300
H273        H  0.31159719  0.19014485  0.68384186     0.32000
O274        O  0.30413524  0.20199844  0.70305982    -1.30600
H275        H  0.24473381  0.29636934  0.72869045     0.32000
O276        O  0.25717865  0.27732477  0.73535917    -1.32000
C277        C  0.41541745  0.71599791  0.47100580     0.79300
N278        N  0.44790860  0.70900567  0.47130253    -0.79000
C279        C  0.46416327  0.70569584  0.50011485     0.81700
N280        N  0.44801562  0.71008189  0.52886581    -0.79000
C281        C  0.41557781  0.71707764  0.52863810     0.81800
N282        N  0.39941060  0.71954218  0.49982551    -0.80700
C283        C  0.22607193  0.85760196  0.52811433     0.79300
N284        N  0.22444445  0.89090862  0.52864436    -0.79000
C285        C  0.22337068  0.90823340  0.50020439     0.81700
N286        N  0.22320123  0.89187503  0.47102066    -0.79000
C287        C  0.22422305  0.85845583  0.47005517     0.81800
N288        N  0.22613080  0.84150025  0.49874573    -0.80700
C289        C  0.29743944  0.50924210  0.61822512     0.79300
N290        N  0.29429120  0.50745803  0.58519430    -0.79000
C291        C  0.29189119  0.47774005  0.57032153     0.81700
N292        N  0.29270112  0.44996157  0.58836165    -0.79000
C293        C  0.29521334  0.45173978  0.62144620     0.81800
N294        N  0.29752685  0.48142126  0.63634737    -0.80700
C295        C  0.15547263  0.44998991  0.79139292     0.79300
N296        N  0.17220451  0.47898607  0.79014908    -0.79000
C297        C  0.15572399  0.50823540  0.79079888     0.81700
N298        N  0.12248919  0.50794023  0.79326834    -0.79000
C299        C  0.10561038  0.47929969  0.79485685     0.81800
N300        N  0.12228195  0.45052500  0.79385030    -0.80700
O301        O  0.25390356  0.74324797  0.84990616    -0.87400
O302        O  0.21037411  0.69817821  0.67486787    -0.87600
O303        O  0.18255625  0.75987510  0.76612864    -0.89200
O304        O  0.21117642  0.65798134  0.78006755    -0.88000
O305        O  0.25956195  0.62957974  0.77664053    -0.87600
O306        O  0.20739931  0.80511536  0.74413875    -0.89000
O307        O  0.18298291  0.69859824  0.72406438    -0.87400
O308        O  0.20789499  0.72415142  0.82335528    -0.87000
Zr309      Zr  0.22160645  0.71545167  0.76619246     2.84300
O310        O  0.25431259  0.68294605  0.73250454    -1.09000
O311        O  0.25038190  0.76278222  0.78089123    -1.09700
C312        C  0.22373141  0.73400275  0.84890092     1.05700
C313        C  0.18418753  0.69470077  0.69259296     1.05600
C314        C  0.18263540  0.79005414  0.75673329     1.08600
C315        C  0.22831854  0.63118652  0.78141324     1.06400
H316        H  0.21499971  0.75301168  0.70768715     0.32000
O317        O  0.23447988  0.74637772  0.71942834    -1.30000
H318        H  0.26217022  0.68818793  0.81476782     0.31600
O319        O  0.26843673  0.70063424  0.79559740    -1.31600
O320        O  0.31117891  0.71958540  0.64704634    -0.87400
O321        O  0.35317861  0.76493281  0.82234435    -0.88900
O322        O  0.24913362  0.80616796  0.67772337    -0.87500
O323        O  0.29697492  0.63011356  0.71621753    -0.87500
O324        O  0.31872500  0.65724138  0.81841972    -0.87200
O325        O  0.26371139  0.82989473  0.78019772    -0.87000
O326        O  0.35660811  0.80280575  0.71702633    -0.87400
O327        O  0.38334421  0.70079108  0.72950530    -0.86900
O328        O  0.30823107  0.83153542  0.71976724    -0.87900
O329        O  0.35859327  0.65445379  0.74965597    -0.87100
O330        O  0.25164059  0.75782707  0.64862444    -0.87500
O331        O  0.28539999  0.80490413  0.82551268    -0.87200
O332        O  0.31726597  0.70592001  0.84667207    -0.86900
O333        O  0.27670883  0.65697089  0.67083136    -0.87300
O334        O  0.35722286  0.73873440  0.67279947    -0.87600
O335        O  0.38222953  0.76083017  0.77420272    -0.88900
Zr336      Zr  0.26740428  0.71387113  0.68611412     2.83100
Zr337      Zr  0.29735093  0.74829618  0.81004965     2.83500
Zr338      Zr  0.26469693  0.79283662  0.73417334     2.84100
Zr339      Zr  0.30184086  0.66865641  0.76157823     2.83400
Zr340      Zr  0.34440782  0.74578907  0.73033041     2.84200
O341        O  0.33114458  0.71553684  0.77710031    -1.09500
O342        O  0.29762602  0.76055856  0.70055356    -1.09000
C343        C  0.34141413  0.72839518  0.64737509     1.05700
C344        C  0.37994767  0.76629554  0.80543993     1.08300
C345        C  0.24694071  0.78917677  0.65090333     1.05800
C346        C  0.28747076  0.63140754  0.68604128     1.06200
C347        C  0.32227667  0.67463747  0.84489260     1.05800
C348        C  0.27228834  0.82956733  0.81061262     1.05300
C349        C  0.33970545  0.82963592  0.71559958     1.05800
C350        C  0.38320070  0.67009000  0.73729820     1.05300
H351        H  0.32357231  0.79801863  0.77119284     0.32000
O352        O  0.31177430  0.77876518  0.76393764    -1.30600
H353        H  0.32851587  0.68559704  0.70032917     0.32000
O354        O  0.31505188  0.69893710  0.71469025    -1.32000
C355        C  0.76154822  0.44919515  0.38133280     0.79300
N356        N  0.76211994  0.44893920  0.41458235    -0.79000
C357        C  0.76174508  0.47733699  0.43193113     0.81700
N358        N  0.76118346  0.50632740  0.41575421    -0.79000
C359        C  0.75979297  0.50693394  0.38255908     0.81800
N360        N  0.76015908  0.47835998  0.36526704    -0.80700
C361        C  0.91350379  0.50811606  0.19550783     0.79300
N362        N  0.94687937  0.50690216  0.19548969    -0.79000
C363        C  0.96306883  0.47765802  0.19611724     0.81700
N364        N  0.94533215  0.44930455  0.19679637    -0.79000
C365        C  0.91186294  0.44999578  0.19739416     0.81800
N366        N  0.89629013  0.47956378  0.19666853    -0.80700
C367        C  0.56373614  0.59869280  0.25077638     0.79300
N368        N  0.53520632  0.61581208  0.24952612    -0.79000
C369        C  0.50611103  0.59992336  0.24763328     0.81700
N370        N  0.50551941  0.56661164  0.24763562    -0.79000
C371        C  0.53406236  0.54953226  0.24843195     0.81800
N372        N  0.56287893  0.56565632  0.25006745    -0.80700
C373        C  0.56600968  0.78354477  0.12144282     0.79300
N374        N  0.56464106  0.78569206  0.08817691    -0.79000
C375        C  0.53540537  0.78781876  0.07231805     0.81700
N376        N  0.50721371  0.78733997  0.09023945    -0.79000
C377        C  0.50776543  0.78521728  0.12354358     0.81800
N378        N  0.53740899  0.78361203  0.13892291    -0.80700
O379        O  0.80355279  0.82746833  0.22101517    -0.87400
O380        O  0.75368265  0.65263320  0.18184699    -0.87600
O381        O  0.81651362  0.74179551  0.15160164    -0.89200
O382        O  0.71537280  0.76125380  0.17635062    -0.88000
O383        O  0.68600195  0.76018951  0.22436393    -0.87600
O384        O  0.86255610  0.72515639  0.17944058    -0.89000
O385        O  0.75468824  0.70046198  0.15272132    -0.87400
O386        O  0.78343108  0.80142758  0.17496164    -0.87000
Zr387      Zr  0.77152020  0.74495551  0.18977024     2.84300
O388        O  0.73854492  0.71223108  0.22261721    -1.09000
O389        O  0.81773569  0.76080067  0.22007097    -1.09700
C390        C  0.79575843  0.82621255  0.19041447     1.05700
C391        C  0.75042016  0.66901181  0.15501815     1.05600
C392        C  0.84713787  0.73414817  0.15334050     1.08600
C393        C  0.68848051  0.76467239  0.19301322     1.06400
H394        H  0.80925830  0.68631514  0.18606501     0.32000
O395        O  0.80202531  0.69861160  0.20510343    -1.30000
H396        H  0.74377961  0.79529927  0.22871820     0.31600
O397        O  0.75561177  0.77596603  0.23571123    -1.31600
O398        O  0.76961835  0.62703550  0.28290504    -0.87400
O399        O  0.81349893  0.80255997  0.32436312    -0.88900
O400        O  0.86116244  0.65850155  0.22037620    -0.87500
O401        O  0.68385012  0.69916325  0.26227014    -0.87500
O402        O  0.71065872  0.79990870  0.28547326    -0.87200
O403        O  0.88648721  0.75897726  0.24286803    -0.87000
O404        O  0.85614842  0.69545649  0.32787438    -0.87400
O405        O  0.75316304  0.71325464  0.35233947    -0.86900
O406        O  0.88427190  0.69669529  0.27925517    -0.87900
O407        O  0.70749926  0.73284744  0.32554568    -0.87100
O408        O  0.81359714  0.62859851  0.22251647    -0.87500
O409        O  0.85916483  0.80437114  0.26222427    -0.87200
O410        O  0.75887798  0.82820064  0.28295010    -0.86900
O411        O  0.71101656  0.65342906  0.24300149    -0.87300
O412        O  0.78935464  0.65323301  0.32878995    -0.87600
O413        O  0.81238620  0.75414694  0.35301934    -0.88900
Zr414      Zr  0.76890216  0.66589717  0.23805094     2.83100
Zr415      Zr  0.80178879  0.79013576  0.26686482     2.83500
Zr416      Zr  0.84757268  0.71463125  0.23603041     2.84100
Zr417      Zr  0.72276159  0.74304142  0.26872288     2.83400
Zr418      Zr  0.79887063  0.71035588  0.31471422     2.84200
O419        O  0.76883440  0.75720369  0.29962016    -1.09500
O420        O  0.81524671  0.68047799  0.26846759    -1.09000
C421        C  0.77816400  0.62786763  0.31338665     1.05700
C422        C  0.81582253  0.78558170  0.35105155     1.08300
C423        C  0.84497025  0.63136149  0.21815789     1.05800
C424        C  0.68501005  0.66926627  0.25199308     1.06200
C425        C  0.72775970  0.82662913  0.28815081     1.05800
C426        C  0.88534049  0.78893447  0.25312262     1.05300
C427        C  0.88285240  0.69270433  0.31059019     1.05800
C428        C  0.72271876  0.72180253  0.35102772     1.05300
H429        H  0.85062481  0.75088405  0.29568929     0.32000
O430        O  0.83189749  0.74412126  0.28286696    -1.30600
H431        H  0.73811716  0.68205724  0.29749374     0.32000
O432        O  0.75223466  0.69581521  0.28433780    -1.32000
C433        C  0.65269688  0.70232481  0.53129036     0.79300
N434        N  0.61952886  0.70093683  0.52988203    -0.79000
C435        C  0.60411542  0.70125761  0.50050118     0.81700
N436        N  0.62191934  0.70307588  0.47256681    -0.79000
C437        C  0.65502074  0.70514779  0.47357815     0.81800
N438        N  0.67037451  0.70467096  0.50309232    -0.80700
C439        C  0.83196085  0.85673916  0.53132207     0.79300
N440        N  0.83504681  0.89000409  0.53109346    -0.79000
C441        C  0.83680025  0.90677596  0.50231585     0.81700
N442        N  0.83475075  0.88982975  0.47354483    -0.79000
C443        C  0.83154429  0.85662724  0.47331386     0.81800
N444        N  0.83058504  0.84015660  0.50227209    -0.80700
C445        C  0.56337623  0.59793594  0.71720041     0.79300
N446        N  0.56157035  0.56479861  0.71656281    -0.79000
C447        C  0.53199249  0.54989025  0.71493663     0.81700
N448        N  0.50421722  0.56813055  0.71440265    -0.79000
C449        C  0.50560552  0.60138606  0.71559956     0.81800
N450        N  0.53540836  0.61610688  0.71706817    -0.80700
C451        C  0.50060031  0.77792456  0.87886287     0.79300
N452        N  0.53000564  0.77711785  0.86315759    -0.79000
C453        C  0.55843950  0.77891031  0.88024362     0.81700
N454        N  0.55727506  0.78103377  0.91342329    -0.79000
C455        C  0.52814345  0.78212365  0.92970208     0.81800
N456        N  0.49975570  0.78087696  0.91217501    -0.80700
C457        C  0.78240841  0.45040274  0.62200425     0.79300
N458        N  0.77982569  0.47922821  0.63862509    -0.79000
C459        C  0.77727771  0.50786334  0.62189772     0.81700
N460        N  0.77711545  0.50743838  0.58861422    -0.79000
C461        C  0.77947381  0.47868541  0.57192425     0.81800
N462        N  0.78190153  0.45013798  0.58874816    -0.80700
C463        C  0.91247030  0.51000412  0.79766639     0.79300
N464        N  0.94586846  0.51092234  0.79704599    -0.79000
C465        C  0.96362453  0.48262889  0.79713922     0.81700
N466        N  0.94779572  0.45337496  0.79824845    -0.79000
C467        C  0.91463208  0.45161535  0.79923264     0.81800
N468        N  0.89708759  0.48024721  0.79895356    -0.80700
O469        O  0.81105668  0.74637085  0.85488973    -0.87400
O470        O  0.85158805  0.70081454  0.67839152    -0.87600
O471        O  0.85811272  0.66156556  0.78446039    -0.89200
O472        O  0.88107386  0.76452693  0.76561202    -0.88000
O473        O  0.85273860  0.81015279  0.74795187    -0.87600
O474        O  0.81043516  0.63180327  0.78258003    -0.89000
O475        O  0.88162160  0.70386643  0.72577699    -0.87400
O476        O  0.85706030  0.72829544  0.82784439    -0.87000
Zr477      Zr  0.84373233  0.71854106  0.77028820     2.84300
O478        O  0.82742862  0.74874320  0.72414893    -1.09000
O479        O  0.79788008  0.70158028  0.80053967    -1.09700
C480        C  0.84162449  0.73848955  0.85378234     1.05700
C481        C  0.87884017  0.69922827  0.69442282     1.05600
C482        C  0.84180435  0.63433696  0.78663449     1.08600
C483        C  0.87896580  0.79495596  0.75711521     1.06400
H484        H  0.82425666  0.66607325  0.72964949     0.32000
O485        O  0.81159303  0.68477878  0.73707295    -1.30000
H486        H  0.82599706  0.77867137  0.79973467     0.31600
O487        O  0.81268774  0.76461320  0.78603013    -1.31600
O488        O  0.74974412  0.71494175  0.65338072    -0.87400
O489        O  0.70970768  0.76018057  0.82952709    -0.88900
O490        O  0.76901864  0.62993215  0.72146483    -0.87500
O491        O  0.81212418  0.80758187  0.68312330    -0.87500
O492        O  0.79081693  0.83304122  0.78490422    -0.87200
O493        O  0.75102692  0.65439925  0.82418111    -0.87000
O494        O  0.68148388  0.69725312  0.73757413    -0.87400
O495        O  0.70443946  0.80016108  0.72036387    -0.86900
O496        O  0.70917113  0.65160746  0.75545056    -0.87900
O497        O  0.75164722  0.83063775  0.72200969    -0.87100
O498        O  0.78631151  0.65813527  0.67607703    -0.87500
O499        O  0.75320117  0.70261928  0.85332874    -0.87200
O500        O  0.77389334  0.80488547  0.83083180    -0.86900
O501        O  0.81028387  0.75915345  0.65424495    -0.87300
O502        O  0.70328587  0.73154267  0.68047888    -0.87600
O503        O  0.68024261  0.75761499  0.78169845    -0.88900
Zr504      Zr  0.79493627  0.71508865  0.69146731     2.83100
Zr505      Zr  0.76660448  0.74748190  0.81590602     2.83500
Zr506      Zr  0.76543782  0.66804822  0.76727799     2.84100
Zr507      Zr  0.79592578  0.79442052  0.73972845     2.83400
Zr508      Zr  0.71800197  0.74388260  0.73713003     2.84200
O509        O  0.74984571  0.77802093  0.77023693    -1.09500
O510        O  0.74920983  0.69829391  0.72145969    -1.09000
C511        C  0.71874379  0.72120717  0.65472153     1.05700
C512        C  0.68262512  0.76139137  0.81316136     1.08300
C513        C  0.77720702  0.63172140  0.69086421     1.05800
C514        C  0.81470188  0.79051804  0.65633568     1.06200
C515        C  0.78294994  0.83109544  0.81553181     1.05800
C516        C  0.74934193  0.67116490  0.85123729     1.05300
C517        C  0.68343656  0.66637614  0.74430551     1.05800
C518        C  0.72046662  0.82740943  0.71708994     1.05300
H519        H  0.71524098  0.70575268  0.79552348     0.32000
O520        O  0.73404707  0.71350667  0.78333559    -1.30600
H521        H  0.75617629  0.77272231  0.68738988     0.32000
O522        O  0.76349517  0.76090994  0.70656980    -1.32000
C523        C  0.50579625  0.36054319  0.25053635     0.79300
N524        N  0.50635362  0.39365347  0.25324507    -0.79000
C525        C  0.53522478  0.40983643  0.25502228     0.81700
N526        N  0.56382817  0.39291479  0.25315605    -0.79000
C527        C  0.56335918  0.35979658  0.25061176     0.81800
N528        N  0.53441566  0.34356665  0.24981984    -0.80700
C529        C  0.56578232  0.18058568  0.11784714     0.79300
N530        N  0.56667033  0.17894185  0.08454211    -0.79000
C531        C  0.53847933  0.17885046  0.06681730     0.81700
N532        N  0.50908686  0.18002319  0.08282488    -0.79000
C533        C  0.50757846  0.18125121  0.11614671     0.81800
N534        N  0.53620685  0.18141043  0.13330116    -0.80700
O535        O  0.81862261  0.21304075  0.14927477    -0.87400
O536        O  0.85172237  0.25801906  0.32705086    -0.87600
O537        O  0.85937831  0.29940680  0.21874003    -0.89200
O538        O  0.88549803  0.19892704  0.23978700    -0.88000
O539        O  0.85873998  0.15297548  0.25890636    -0.87600
O540        O  0.81055744  0.32730018  0.21701642    -0.89000
O541        O  0.88223877  0.25643837  0.27964721    -0.87400
O542        O  0.86299641  0.23391625  0.17716992    -0.87000
Zr543      Zr  0.84630656  0.24245576  0.23384231     2.84300
O544        O  0.82944551  0.21269568  0.27999240    -1.09000
O545        O  0.80140767  0.25611059  0.20107504    -1.09700
C546        C  0.84857383  0.22300683  0.15114873     1.05700
C547        C  0.87919669  0.25969311  0.31111540     1.05600
C548        C  0.84217939  0.32580394  0.21427491     1.08600
C549        C  0.88437499  0.16892489  0.24942267     1.06400
H550        H  0.82398532  0.29508180  0.27278950     0.32000
O551        O  0.81229545  0.27570911  0.26564154    -1.30000
H552        H  0.83265732  0.18086311  0.20504572     0.31600
O553        O  0.81814909  0.19456296  0.21799616    -1.31600
O554        O  0.74879359  0.24192880  0.34865244    -0.87400
O555        O  0.71615419  0.19308258  0.17172620    -0.88900
O556        O  0.76639519  0.32892973  0.27646761    -0.87500
O557        O  0.81448006  0.15394344  0.32229707    -0.87500
O558        O  0.79968981  0.12552311  0.22032411    -0.87200
O559        O  0.75420825  0.29923306  0.17502548    -0.87000
O560        O  0.68271197  0.25790676  0.25840928    -0.87400
O561        O  0.70857700  0.15597953  0.27792733    -0.86900
O562        O  0.70954210  0.30320691  0.23824788    -0.87900
O563        O  0.75699893  0.12722874  0.27927845    -0.87100
O564        O  0.78294165  0.30314803  0.32352056    -0.87500
O565        O  0.75697020  0.25074417  0.14639003    -0.87200
O566        O  0.78244156  0.15123729  0.17318757    -0.86900
O567        O  0.80974608  0.20258995  0.35057485    -0.87300
O568        O  0.70461241  0.22120813  0.32061820    -0.87600
O569        O  0.68630131  0.19498426  0.21943916    -0.88900
Zr570      Zr  0.79497597  0.24566690  0.31154205     2.83100
Zr571      Zr  0.77238656  0.20864032  0.18613317     2.83500
Zr572      Zr  0.76708123  0.28908807  0.23267545     2.84100
Zr573      Zr  0.80087324  0.16535424  0.26462353     2.83400
Zr574      Zr  0.72133433  0.21297806  0.26381838     2.84200
O575        O  0.75543545  0.17924842  0.23244042    -1.09500
O576        O  0.74977577  0.26030033  0.27939686    -1.09000
C577        C  0.71890943  0.23179805  0.34689379     1.05700
C578        C  0.68906965  0.19053403  0.18816482     1.08300
C579        C  0.77270989  0.32850598  0.30737195     1.05800
C580        C  0.81512904  0.17129239  0.34905145     1.06200
C581        C  0.79223314  0.12597688  0.18956175     1.05800
C582        C  0.75224958  0.28210104  0.14826487     1.05300
C583        C  0.68382278  0.28802549  0.24875554     1.05800
C584        C  0.72539112  0.12926571  0.28166323     1.05300
H585        H  0.71924704  0.24871644  0.20413237     0.32000
O586        O  0.73792103  0.24222336  0.21717666    -1.30600
H587        H  0.75860772  0.18615828  0.31494892     0.32000
O588        O  0.76618362  0.19829041  0.29605910    -1.32000
C589        C  0.50781574  0.36225394  0.74529006     0.79300
N590        N  0.53697846  0.34688279  0.74899994    -0.79000
C591        C  0.56565948  0.36358398  0.74691496     0.81700
N592        N  0.56494657  0.39615296  0.73997475    -0.79000
C593        C  0.53572304  0.41171614  0.73599538     0.81800
N594        N  0.50734578  0.39481086  0.73892526    -0.80700
C595        C  0.50975633  0.16892772  0.87411096     0.79300
N596        N  0.50951921  0.16802745  0.90757905    -0.79000
C597        C  0.53805030  0.16641960  0.92483240     0.81700
N598        N  0.56700341  0.16640560  0.90835151    -0.79000
C599        C  0.56780938  0.16705319  0.87508005     0.81800
N600        N  0.53913938  0.16840247  0.85813613    -0.80700
C601        C  0.65687657  0.21227440  0.52900610     0.79300
N602        N  0.62355270  0.21314318  0.52903350    -0.79000
C603        C  0.60686673  0.21352603  0.50032646     0.81700
N604        N  0.62342528  0.21252136  0.47160098    -0.79000
C605        C  0.65654663  0.21182657  0.47122991     0.81800
N606        N  0.67338405  0.21247826  0.49994812    -0.80700
C607        C  0.83823655  0.10051171  0.47062717     0.79300
N608        N  0.83926157  0.06712524  0.47023547    -0.79000
C609        C  0.83905581  0.04980560  0.49875295     0.81700
N610        N  0.83841185  0.06636764  0.52783102    -0.79000
C611        C  0.83761906  0.09975181  0.52872698     0.81800
N612        N  0.83685512  0.11657165  0.49996332    -0.80700
O613        O  0.82017574  0.21373980  0.85027791    -0.87400
O614        O  0.85655686  0.25845489  0.67320471    -0.87600
O615        O  0.88799270  0.19718892  0.76141332    -0.89200
O616        O  0.86254695  0.29993352  0.78069787    -0.88000
O617        O  0.81391946  0.32782835  0.77990524    -0.87600
O618        O  0.86050878  0.15096217  0.74390903    -0.89000
O619        O  0.88659099  0.25864041  0.72081643    -0.87400
O620        O  0.86509184  0.23382252  0.82260094    -0.87000
Zr621      Zr  0.84992397  0.24254692  0.76566611     2.84300
O622        O  0.81614595  0.27525770  0.73347322    -1.09000
O623        O  0.82048834  0.19583523  0.78233724    -1.09700
C624        C  0.85021561  0.22341649  0.84858356     1.05700
C625        C  0.88367054  0.26199930  0.68936809     1.05600
C626        C  0.88641769  0.16665797  0.75308997     1.08600
C627        C  0.84523514  0.32657369  0.78393198     1.06400
H628        H  0.85204911  0.20428827  0.70729202     0.32000
O629        O  0.83330649  0.21147066  0.72001956    -1.30000
H630        H  0.81167185  0.26986853  0.81604669     0.31600
O631        O  0.80425562  0.25753532  0.79717292    -1.31600
O632        O  0.75516057  0.23825361  0.64915675    -0.87400
O633        O  0.71764756  0.19570139  0.82579363    -0.88900
O634        O  0.81718143  0.15206348  0.68009975    -0.87500
O635        O  0.77299112  0.32862405  0.72015148    -0.87500
O636        O  0.75787525  0.30307353  0.82264310    -0.87200
O637        O  0.80270441  0.12763296  0.78272107    -0.87000
O638        O  0.71070869  0.15800140  0.71864445    -0.87400
O639        O  0.68611341  0.25967437  0.74067464    -0.86900
O640        O  0.75861921  0.12848947  0.72042369    -0.87900
O641        O  0.71261309  0.30435020  0.76195568    -0.87100
O642        O  0.81444355  0.19961471  0.65031134    -0.87500
O643        O  0.78383038  0.15395362  0.82870488    -0.87200
O644        O  0.75932738  0.25476575  0.85133266    -0.86900
O645        O  0.79197342  0.30192808  0.67399812    -0.87300
O646        O  0.70961966  0.22030924  0.67733251    -0.87600
O647        O  0.68781226  0.19683642  0.77805212    -0.88900
Zr648      Zr  0.79985636  0.24446399  0.68768947     2.83100
Zr649      Zr  0.77433339  0.21095663  0.81315356     2.83500
Zr650      Zr  0.80326370  0.16538384  0.73677957     2.84100
Zr651      Zr  0.77026886  0.29008819  0.76507244     2.83400
Zr652      Zr  0.72440975  0.21430347  0.73463049     2.84200
O653        O  0.74037913  0.24399547  0.78125002    -1.09500
O654        O  0.77013550  0.19821697  0.70399497    -1.09000
C655        C  0.72506099  0.22867032  0.65096797     1.05700
C656        C  0.69071730  0.19263036  0.80927572     1.08300
C657        C  0.81870320  0.16822068  0.65292328     1.05800
C658        C  0.78177581  0.32761793  0.68973087     1.06200
C659        C  0.75582925  0.28624394  0.84950186     1.05800
C660        C  0.79457702  0.12824488  0.81330799     1.05300
C661        C  0.72729072  0.13105547  0.71553453     1.05800
C662        C  0.68660795  0.28925941  0.75203458     1.05300
H663        H  0.74516939  0.16166365  0.77459826     0.32000
O664        O  0.75724339  0.18076839  0.76746597    -1.30600
H665        H  0.73944881  0.27460928  0.70473576     0.32000
O666        O  0.75348769  0.26097040  0.71809455    -1.32000
O667        O  0.25652317  0.21184068  0.14778336    -0.87400
O668        O  0.21330276  0.25961297  0.32325234    -0.87600
O669        O  0.18542698  0.19598528  0.23521591    -0.89200
O670        O  0.20874006  0.29850556  0.21871742    -0.88000
O671        O  0.25614751  0.32872541  0.22025914    -0.87600
O672        O  0.21364551  0.15117230  0.25420442    -0.89000
O673        O  0.18519994  0.25728561  0.27466806    -0.87400
O674        O  0.21025205  0.22992107  0.17483866    -0.87000
Zr675      Zr  0.22332359  0.24149663  0.23154491     2.84300
O676        O  0.25478876  0.27533735  0.26478168    -1.09000
O677        O  0.25494091  0.19610854  0.21615891    -1.09700
C678        C  0.22581434  0.21904745  0.14939052     1.05700
C679        C  0.18675712  0.26192929  0.30601143     1.05600
C680        C  0.18731179  0.16577916  0.24449840     1.08600
C681        C  0.22473423  0.32591194  0.21709560     1.06400
H682        H  0.21975876  0.20444193  0.29045827     0.32000
O683        O  0.23869891  0.21182424  0.27824007    -1.30000
H684        H  0.26157821  0.27053648  0.18187755     0.31600
O685        O  0.26887187  0.25850950  0.20093462    -1.31600
O686        O  0.31535033  0.24352477  0.34994628    -0.87400
O687        O  0.35839278  0.19973828  0.17348840    -0.88900
O688        O  0.25550365  0.15373758  0.31976094    -0.87500
O689        O  0.29392753  0.33111589  0.27850561    -0.87500
O690        O  0.31622715  0.30499643  0.17828597    -0.87200
O691        O  0.27224159  0.12914889  0.21699145    -0.87000
O692        O  0.36264113  0.15928962  0.27960891    -0.87400
O693        O  0.38542507  0.26251734  0.26161495    -0.86900
O694        O  0.31474355  0.12979929  0.27808076    -0.87900
O695        O  0.35713407  0.30785353  0.24325715    -0.87100
O696        O  0.25494416  0.20202377  0.34879068    -0.87500
O697        O  0.29271329  0.15559689  0.17167287    -0.87200
O698        O  0.31617280  0.25713182  0.14855555    -0.86900
O699        O  0.27571986  0.30350827  0.32427677    -0.87300
O700        O  0.36141816  0.22414450  0.32353995    -0.87600
O701        O  0.38660980  0.20214113  0.22180145    -0.88900
Zr702      Zr  0.27065734  0.24572757  0.31108491     2.83100
Zr703      Zr  0.30112222  0.21283667  0.18621824     2.83500
Zr704      Zr  0.27043098  0.16666880  0.26277499     2.84100
Zr705      Zr  0.30077550  0.29171244  0.23474276     2.83400
Zr706      Zr  0.34833645  0.21638934  0.26591605     2.84200
O707        O  0.33289125  0.24649295  0.21951250    -1.09500
O708        O  0.30238898  0.19997065  0.29624980    -1.09000
C709        C  0.34562330  0.23428351  0.34920368     1.05700
C710        C  0.38519919  0.19791586  0.19039519     1.08300
C711        C  0.25160457  0.17054991  0.34659801     1.05800
C712        C  0.28447622  0.32956024  0.30863516     1.06200
C713        C  0.31980824  0.28858325  0.15122685     1.05800
C714        C  0.28106751  0.13023873  0.18665924     1.05300
C715        C  0.34612504  0.13216012  0.28163072     1.05800
C716        C  0.38328962  0.29281493  0.25270111     1.05300
H717        H  0.32938862  0.16383090  0.22521603     0.32000
O718        O  0.31675831  0.18265318  0.23237917    -1.30600
H719        H  0.33034255  0.27673479  0.29536904     0.32000
O720        O  0.31721248  0.26256173  0.28159615    -1.32000
C721        C  0.82042080  0.10080203  0.58750393    -0.10100
C722        C  0.83498896  0.11721684  0.56085200     0.06100
C723        C  0.84579465  0.14991755  0.56556090    -0.03800
C724        C  0.84079623  0.16561152  0.59584093    -0.08300
C725        C  0.82538729  0.14949931  0.62217600     0.05200
C726        C  0.81545251  0.11644513  0.61779600    -0.03300
Br727      Br  0.79273398  0.09151312  0.65087064    -0.03000
H728        H  0.81181785  0.07578683  0.58454828     0.09100
H729        H  0.84915547  0.19071717  0.59880082     0.07200
Br730      Br  0.86889507  0.17445490  0.53257083    -0.03400
C731        C  0.72200228  0.20644995  0.59498327    -0.10100
C732        C  0.70750145  0.22533277  0.61997402     0.06100
C733        C  0.67627492  0.23919193  0.61532509    -0.03800
C734        C  0.66012990  0.23425685  0.58557416    -0.08300
C735        C  0.67459261  0.21543749  0.56030064     0.05200
C736        C  0.70572870  0.20106499  0.56537515    -0.03300
Br737      Br  0.72642790  0.17199629  0.53425414    -0.03000
H738        H  0.74577025  0.19506491  0.59890176     0.09100
H739        H  0.63638446  0.24574839  0.58200991     0.07200
Br740      Br  0.65551496  0.26639119  0.64804763    -0.03400
C741        C  0.63746789  0.16305558  0.81264791    -0.10100
C742        C  0.66042886  0.18429236  0.82729972     0.06100
C743        C  0.65274254  0.19919217  0.85766448    -0.03800
C744        C  0.62289983  0.19223315  0.87300256    -0.08300
C745        C  0.59969768  0.17138668  0.85825333     0.05200
C746        C  0.60719633  0.15667813  0.82769776    -0.03300
Br747      Br  0.57775075  0.12713051  0.80572305    -0.03000
H748        H  0.64298120  0.15159954  0.78918412     0.09100
H749        H  0.61719511  0.20444127  0.89603712     0.07200
Br750      Br  0.67998644  0.23219107  0.87764390    -0.03400
C751        C  0.59618721  0.31115404  0.74576800    -0.10100
C752        C  0.59689670  0.34537402  0.75037135     0.06100
C753        C  0.62697741  0.36049928  0.75856702    -0.03800
C754        C  0.65564746  0.34163272  0.75952931    -0.08300
C755        C  0.65513892  0.30757817  0.75321347     0.05200
C756        C  0.62448922  0.29214764  0.74787230    -0.03300
Br757      Br  0.61800041  0.24531921  0.74508068    -0.03000
H758        H  0.57329949  0.29872490  0.74044905     0.09100
H759        H  0.67850943  0.35389858  0.76529420     0.07200
Br760      Br  0.63092440  0.40603166  0.77068534    -0.03400
C761        C  0.67880408  0.20313833  0.38196747    -0.10100
C762        C  0.70068616  0.22947499  0.37802184     0.06100
C763        C  0.70781690  0.24993783  0.40523664    -0.03800
C764        C  0.69455516  0.24255921  0.43594691    -0.08300
C765        C  0.67332775  0.21583462  0.43981441     0.05200
C766        C  0.66496937  0.19635320  0.41249509    -0.03300
Br767      Br  0.63594848  0.15933569  0.41580218    -0.03000
H768        H  0.67329367  0.18695468  0.36151348     0.09100
H769        H  0.69991200  0.25845808  0.45667302     0.07200
Br770      Br  0.73438154  0.28884954  0.40210910    -0.03400
C771        C  0.81159009  0.14487608  0.43884212    -0.10100
C772        C  0.83451886  0.11919181  0.43959845     0.06100
C773        C  0.85191726  0.11132937  0.41053753    -0.03800
C774        C  0.84544436  0.12854204  0.38135540    -0.08300
C775        C  0.82197642  0.15394383  0.38049851     0.05200
C776        C  0.80505616  0.16194836  0.40985880    -0.03300
Br777      Br  0.77051761  0.19378823  0.41197441    -0.03000
H778        H  0.79767091  0.15099859  0.46077298     0.09100
H779        H  0.85908900  0.12227615  0.35931153     0.07200
Br780      Br  0.88606309  0.07878522  0.40972091    -0.03400
C781        C  0.56439432  0.18458563  0.97686383    -0.10100
C782        C  0.53820390  0.16836473  0.96122324     0.06100
C783        C  0.51293823  0.15496561  0.98073724    -0.03800
C784        C  0.51358146  0.15909563  0.01483051    -0.08300
C785        C  0.53939080  0.17579546  0.03048465     0.05200
C786        C  0.56532271  0.18833409  0.01103763    -0.03300
Br787      Br  0.60200281  0.21222706  0.02876947    -0.03000
H788        H  0.58410810  0.19505733  0.96237167     0.09100
H789        H  0.49406813  0.14828226  0.02929751     0.07200
Br790      Br  0.47828576  0.12841100  0.96300691    -0.03400
C791        C  0.47627507  0.18653878  0.16868080    -0.10100
C792        C  0.47546324  0.18338909  0.13424417     0.06100
C793        C  0.44423251  0.18291469  0.11885350    -0.03800
C794        C  0.41558255  0.18685547  0.13774528    -0.08300
C795        C  0.41660151  0.19133394  0.17210117     0.05200
C796        C  0.44779329  0.19053822  0.18752861    -0.03300
Br797      Br  0.45483543  0.19483444  0.23411007    -0.03000
H798        H  0.49945971  0.18611880  0.18152455     0.09100
H799        H  0.39219827  0.18665283  0.12513534     0.07200
Br800      Br  0.43765713  0.17669451  0.07247865    -0.03400
C801        C  0.62561304  0.16793250  0.12291879    -0.10100
C802        C  0.59689316  0.18155914  0.13685218     0.06100
C803        C  0.59899242  0.19644154  0.16822118    -0.03800
C804        C  0.62905299  0.19780814  0.18434976    -0.08300
C805        C  0.65788198  0.18490189  0.17025325     0.05200
C806        C  0.65587223  0.16934395  0.13927592    -0.03300
Br807      Br  0.69286998  0.14843114  0.11853413    -0.03000
H808        H  0.62457588  0.15595072  0.09912948     0.09100
H809        H  0.62994279  0.21036426  0.20786217     0.07200
Br810      Br  0.56316166  0.21812343  0.19024038    -0.03400
C811        C  0.44733717  0.35773054  0.26604397    -0.10100
C812        C  0.47421528  0.34347660  0.24953243     0.06100
C813        C  0.47017470  0.31337523  0.23274520    -0.03800
C814        C  0.44021540  0.29722529  0.23457882    -0.08300
C815        C  0.41381952  0.31111334  0.25179668     0.05200
C816        C  0.41708999  0.34195377  0.26700822    -0.03300
Br817      Br  0.38181598  0.36281223  0.29066857    -0.03000
H818        H  0.44992203  0.38097321  0.27878493     0.09100
H819        H  0.43722207  0.27398213  0.22181877     0.07200
Br820      Br  0.50315635  0.29405176  0.20481837    -0.03400
C821        C  0.60127006  0.32050716  0.27547082    -0.10100
C822        C  0.59398121  0.34155168  0.24946182     0.06100
C823        C  0.61626410  0.34542208  0.22337158    -0.03800
C824        C  0.64560590  0.32773177  0.22347450    -0.08300
C825        C  0.65303598  0.30653680  0.24957969     0.05200
C826        C  0.63084578  0.30338983  0.27604185    -0.03300
Br827      Br  0.64063597  0.27860135  0.31492015    -0.03000
H828        H  0.58429349  0.31817438  0.29588852     0.09100
H829        H  0.66248880  0.33028561  0.20301396     0.07200
Br830      Br  0.60706115  0.37360031  0.18676751    -0.03400
C831        C  0.86317999  0.41814334  0.79873770    -0.10100
C832        C  0.89767052  0.41883084  0.79880387     0.06100
C833        C  0.91453429  0.38815683  0.79757431    -0.03800
C834        C  0.89693660  0.35875125  0.79371291    -0.08300
C835        C  0.86247038  0.35831857  0.79169398     0.05200
C836        C  0.84559925  0.38872065  0.79575571    -0.03300
Br837      Br  0.79856821  0.39321303  0.79828730    -0.03000
H838        H  0.84940964  0.44084083  0.80086933     0.09100
H839        H  0.91059834  0.33595261  0.79193463     0.07200
Br840      Br  0.96138565  0.38309686  0.80124157    -0.03400
C841        C  0.90703172  0.57025227  0.80977500    -0.10100
C842        C  0.89340019  0.54136844  0.79628086     0.06100
C843        C  0.86256060  0.54362456  0.78059698    -0.03800
C844        C  0.84631225  0.57387255  0.77882699    -0.08300
C845        C  0.85999215  0.60286339  0.79188544     0.05200
C846        C  0.89077807  0.60070954  0.80775182    -0.03300
Br847      Br  0.91160954  0.63788155  0.82808920    -0.03000
H848        H  0.93058127  0.56918308  0.82206549     0.09100
H849        H  0.82310637  0.57480552  0.76587874     0.07200
Br850      Br  0.84214345  0.50744381  0.75811251    -0.03400
C851        C  0.75715829  0.41217061  0.66106259    -0.10100
C852        C  0.78315247  0.41939327  0.63976513     0.06100
C853        C  0.80820248  0.39616747  0.63433991    -0.03800
C854        C  0.80697150  0.36601876  0.65039152    -0.08300
C855        C  0.78096615  0.35869660  0.67179845     0.05200
C856        C  0.75563781  0.38189377  0.67680882    -0.03300
Br857      Br  0.71721024  0.37286738  0.70268886    -0.03000
H858        H  0.73744206  0.42976956  0.66463804     0.09100
H859        H  0.82677532  0.34854315  0.64670234     0.07200
Br860      Br  0.84540816  0.40515499  0.60677739    -0.03400
C861        C  0.75685264  0.57476144  0.68342411    -0.10100
C862        C  0.77626508  0.60082081  0.67166522     0.06100
C863        C  0.79509775  0.59600855  0.64273807    -0.03800
C864        C  0.79457080  0.56557290  0.62695040    -0.08300
C865        C  0.77594677  0.53946784  0.63932208     0.05200
C866        C  0.75665430  0.54426976  0.66766674    -0.03300
Br867      Br  0.72842450  0.51084002  0.68523026    -0.03000
H868        H  0.74169494  0.57799853  0.70512224     0.09100
H869        H  0.80963740  0.56200343  0.60525525     0.07200
Br870      Br  0.82380382  0.62850337  0.62396568    -0.03400
C871        C  0.61641000  0.76014118  0.87939449    -0.10100
C872        C  0.59047017  0.77622380  0.86333732     0.06100
C873        C  0.59557455  0.78826095  0.83130116    -0.03800
C874        C  0.62572654  0.78309443  0.81579698    -0.08300
C875        C  0.65169314  0.76696797  0.83161594     0.05200
C876        C  0.64672434  0.75525251  0.86390584    -0.03300
Br877      Br  0.67868721  0.72962750  0.88730757    -0.03000
H878        H  0.61279199  0.75029328  0.90383582     0.09100
H879        H  0.62883927  0.79177235  0.79106378     0.07200
Br880      Br  0.56342010  0.81350665  0.80775710    -0.03400
C881        C  0.55101034  0.49482254  0.69881288    -0.10100
C882        C  0.53026481  0.51436330  0.71826741     0.06100
C883        C  0.51066157  0.49988147  0.74280406    -0.03800
C884        C  0.51277260  0.46620062  0.74799487    -0.08300
C885        C  0.53424202  0.44679384  0.72920142     0.05200
C886        C  0.55288519  0.46105067  0.70389417    -0.03300
Br887      Br  0.57962162  0.43540445  0.67451677    -0.03000
H888        H  0.56585405  0.50592070  0.67971032     0.09100
H889        H  0.49821591  0.45520908  0.76738365     0.07200
Br890      Br  0.48287263  0.52492543  0.77190949    -0.03400
C891        C  0.61633771  0.60152432  0.74639796    -0.10100
C892        C  0.59513108  0.61382979  0.72223267     0.06100
C893        C  0.60408642  0.64171901  0.70424358    -0.03800
C894        C  0.63300697  0.65809720  0.71194026    -0.08300
C895        C  0.65382522  0.64683109  0.73710409     0.05200
C896        C  0.64569251  0.61758752  0.75387578    -0.03300
Br897      Br  0.67228190  0.59882678  0.78800405    -0.03000
H898        H  0.60962201  0.57976481  0.76012949     0.09100
H899        H  0.63943068  0.67962436  0.69771543     0.07200
Br900      Br  0.57896750  0.65705075  0.66744907    -0.03400
C901        C  0.82585571  0.96002497  0.47433456    -0.10100
C902        C  0.83836713  0.94336667  0.50185700     0.06100
C903        C  0.85122909  0.96224069  0.52809115    -0.03800
C904        C  0.85143200  0.99658817  0.52616168    -0.08300
C905        C  0.83884071  0.01320755  0.49867807     0.05200
C906        C  0.82555501  0.99437027  0.47264791    -0.03300
Br907      Br  0.80397076  0.01329046  0.43521642    -0.03000
H908        H  0.81524855  0.94629593  0.45416665     0.09100
H909        H  0.86175194  0.01042658  0.54644084     0.07200
Br910      Br  0.87011861  0.94341729  0.56694956    -0.03400
C911        C  0.84582073  0.85018515  0.59079580    -0.10100
C912        C  0.82840210  0.83912843  0.56304039     0.06100
C913        C  0.80668006  0.81238777  0.56665169    -0.03800
C914        C  0.80358133  0.79681590  0.59701094    -0.08300
C915        C  0.82079827  0.80782742  0.62482154     0.05200
C916        C  0.84196194  0.83509709  0.62156278    -0.03300
Br917      Br  0.86681396  0.85237403  0.65770951    -0.03000
H918        H  0.86252183  0.87073802  0.58859551     0.09100
H919        H  0.78642027  0.77659441  0.59917089     0.07200
Br920      Br  0.77764152  0.79797511  0.53241924    -0.03400
C921        C  0.65363513  0.72400185  0.58789854    -0.10100
C922        C  0.66883364  0.70504650  0.56331922     0.06100
C923        C  0.69922049  0.69000949  0.56965114    -0.03800
C924        C  0.71451914  0.69533191  0.59973645    -0.08300
C925        C  0.70007175  0.71542430  0.62412184     0.05200
C926        C  0.66875918  0.72927375  0.61815683    -0.03300
Br927      Br  0.64524934  0.75659036  0.64894406    -0.03000
H928        H  0.63010360  0.73555806  0.58325177     0.09100
H929        H  0.73792734  0.68340394  0.60401091     0.07200
Br930      Br  0.72019039  0.66051009  0.53911438    -0.03400
C931        C  0.65821087  0.69889519  0.41321777    -0.10100
C932        C  0.67326105  0.70936441  0.44257518     0.06100
C933        C  0.70422168  0.72492887  0.44102889    -0.03800
C934        C  0.71946665  0.72907536  0.41071338    -0.08300
C935        C  0.70435955  0.71858380  0.38165345     0.05200
C936        C  0.67339740  0.70345156  0.38288784    -0.03300
Br937      Br  0.65165620  0.68664377  0.34446431    -0.03000
H938        H  0.63453253  0.68679546  0.41376269     0.09100
H939        H  0.74328057  0.74093969  0.40975845     0.07200
Br940      Br  0.72674624  0.74303231  0.47832179    -0.03400
C941        C  0.84465940  0.80904137  0.43684460    -0.10100
C942        C  0.82767980  0.83872092  0.44185422     0.06100
C943        C  0.80678500  0.85046652  0.41686333    -0.03800
C944        C  0.80428088  0.83333174  0.38715833    -0.08300
C945        C  0.82137879  0.80377747  0.38202400     0.05200
C946        C  0.84155307  0.79144744  0.40735040    -0.03300
Br947      Br  0.86629308  0.75139622  0.40275293    -0.03000
H948        H  0.86058993  0.79958523  0.45589977     0.09100
H949        H  0.78776215  0.84248558  0.36843691     0.07200
Br950      Br  0.77822780  0.88761610  0.42301565    -0.03400
C951        C  0.50455591  0.77714266  0.02055889    -0.10100
C952        C  0.53369521  0.78792487  0.03575751     0.06100
C953        C  0.56026683  0.79749056  0.01550180    -0.03800
C954        C  0.55718608  0.79599082  0.98138677    -0.08300
C955        C  0.52833734  0.78464826  0.96617646     0.05200
C956        C  0.50171825  0.77506268  0.98633291    -0.03300
Br957      Br  0.46162458  0.75656464  0.96966779    -0.03000
H958        H  0.48394903  0.76918666  0.03540032     0.09100
H959        H  0.57791012  0.80377603  0.96661279     0.07200
Br960      Br  0.60149734  0.81375150  0.03165557    -0.03400
C961        C  0.60146453  0.79271810  0.17073758    -0.10100
C962        C  0.59824856  0.78025694  0.13861712     0.06100
C963        C  0.62571088  0.76425513  0.12421464    -0.03800
C964        C  0.65502499  0.76099998  0.14189626    -0.08300
C965        C  0.65794492  0.77261853  0.17433359     0.05200
C966        C  0.63074786  0.78914851  0.18853846    -0.03300
Br967      Br  0.63185368  0.80803225  0.23186912    -0.03000
H968        H  0.58097393  0.80535727  0.18222294     0.09100
H969        H  0.67525789  0.74776378  0.13060617     0.07200
Br970      Br  0.62449798  0.74286582  0.08204863    -0.03400
C971        C  0.51131309  0.49802988  0.26978079    -0.10100
C972        C  0.53411310  0.51384915  0.24950554     0.06100
C973        C  0.55797065  0.49543248  0.23232724    -0.03800
C974        C  0.55856096  0.46154299  0.23560882    -0.08300
C975        C  0.53547960  0.44559753  0.25542976     0.05200
C976        C  0.51191565  0.46403052  0.27306085    -0.03300
Br977      Br  0.48137972  0.44470594  0.30340224    -0.03000
H978        H  0.49350625  0.51222510  0.28372147     0.09100
H979        H  0.57641905  0.44748821  0.22159432     0.07200
Br980      Br  0.58882019  0.51454735  0.20210475    -0.03400
C981        C  0.59572523  0.64884020  0.24155660    -0.10100
C982        C  0.59526720  0.61597550  0.25167996     0.06100
C983        C  0.62488714  0.60075973  0.26175356    -0.03800
C984        C  0.65395388  0.61857501  0.26092073    -0.08300
C985        C  0.65408486  0.65144622  0.25104966     0.05200
C986        C  0.62462655  0.66668013  0.24133945    -0.03300
Br987      Br  0.62173192  0.71113345  0.22617299    -0.03000
H988        H  0.57350024  0.66091256  0.23343961     0.09100
H989        H  0.67649821  0.60693605  0.26898627     0.07200
Br990      Br  0.62818698  0.55690934  0.27896751    -0.03400
C991        C  0.91198316  0.56584837  0.21559349    -0.10100
C992        C  0.89638150  0.54034120  0.19831932     0.06100
C993        C  0.86438387  0.54587091  0.18605040    -0.03800
C994        C  0.84846259  0.57582920  0.19226639    -0.08300
C995        C  0.86371806  0.60092787  0.21043511     0.05200
C996        C  0.89606669  0.59569325  0.22193524    -0.03300
Br997      Br  0.91917393  0.62657184  0.24917426    -0.03000
H998        H  0.93635655  0.56211438  0.22555327     0.09100
H999        H  0.82390520  0.57951443  0.18277806     0.07200
Br1000     Br  0.84137807  0.51439087  0.15947442    -0.03400
C1001       C  0.90648842  0.38936111  0.18778738    -0.10100
C1002       C  0.89278082  0.41872001  0.20018326     0.06100
C1003       C  0.86160137  0.41708217  0.21567813    -0.03800
C1004       C  0.84564386  0.38679694  0.21905598    -0.08300
C1005       C  0.85968023  0.35735131  0.20741460     0.05200
C1006       C  0.89025892  0.35905577  0.19095470    -0.03300
Br1007     Br  0.91036193  0.32143625  0.17051785    -0.03000
H1008       H  0.92997123  0.38995309  0.17522619     0.09100
H1009       H  0.82231740  0.38622996  0.23192660     0.07200
Br1010     Br  0.83976807  0.45431433  0.23521100    -0.03400
C1011       C  0.78411552  0.50237334  0.48232243    -0.10100
C1012       C  0.76588670  0.47699629  0.46775937     0.06100
C1013       C  0.75285199  0.45185988  0.48763911    -0.03800
C1014       C  0.75857442  0.45242367  0.52140023    -0.08300
C1015       C  0.77641016  0.47809715  0.53599152     0.05200
C1016       C  0.78931579  0.50327065  0.51609591    -0.03300
Br1017     Br  0.81529013  0.53892423  0.53288067    -0.03000
H1018       H  0.79472193  0.52158383  0.46730498     0.09100
H1019       H  0.74791879  0.43330286  0.53649650     0.07200
Br1020     Br  0.72470738  0.41779825  0.47098715    -0.03400
C1021       C  0.79025735  0.55803047  0.37327050    -0.10100
C1022       C  0.76312866  0.53831520  0.36566131     0.06100
C1023       C  0.74056890  0.54855961  0.34178010    -0.03800
C1024       C  0.74594044  0.57795140  0.32514725    -0.08300
C1025       C  0.77356084  0.59745379  0.33211416     0.05200
C1026       C  0.79578700  0.58738149  0.35664615    -0.03300
Br1027     Br  0.83525613  0.61100168  0.36706163    -0.03000
H1028       H  0.80776876  0.55004895  0.39162407     0.09100
H1029       H  0.72824266  0.58577152  0.30691182     0.07200
Br1030     Br  0.70134227  0.52427060  0.33239463    -0.03400
C1031       C  0.74830957  0.41546729  0.33242530    -0.10100
C1032       C  0.76423155  0.41816433  0.36282014     0.06100
C1033       C  0.78261514  0.39123933  0.37466176    -0.03800
C1034       C  0.78466189  0.36255824  0.35614123    -0.08300
C1035       C  0.76870377  0.35960481  0.32577891     0.05200
C1036       C  0.75001111  0.38652021  0.31396836    -0.03300
Br1037     Br  0.72470607  0.38572814  0.27403652    -0.03000
H1038       H  0.73387514  0.43584074  0.32321643     0.09100
H1039       H  0.79943992  0.34253664  0.36554315     0.07200
Br1040     Br  0.80751730  0.39183406  0.41475462    -0.03400
C1041       C  0.44359897  0.66928287  0.73391289    -0.10100
C1042       C  0.41396624  0.65196020  0.73141599     0.06100
C1043       C  0.41464935  0.61859361  0.72200437    -0.03800
C1044       C  0.44472108  0.60334669  0.71583032    -0.08300
C1045       C  0.47465773  0.62039355  0.71912258     0.05200
C1046       C  0.47371895  0.65410329  0.72795120    -0.03300
Br1047     Br  0.51158645  0.68175451  0.73346425    -0.03000
H1048       H  0.44342635  0.69497803  0.74103960     0.09100
H1049       H  0.44447203  0.57768292  0.70868309     0.07200
Br1050     Br  0.37584919  0.59240718  0.71579171    -0.03400
C1051       C  0.44233317  0.79391070  0.86935597    -0.10100
C1052       C  0.46989302  0.77537716  0.85973123     0.06100
C1053       C  0.46762029  0.75485998  0.83176158    -0.03800
C1054       C  0.43854301  0.75375674  0.81379841    -0.08300
C1055       C  0.41087315  0.77198015  0.82348194     0.05200
C1056       C  0.41292454  0.79233712  0.85160885    -0.03300
Br1057     Br  0.37703662  0.81937041  0.86640533    -0.03000
H1058       H  0.44373565  0.80989583  0.89065846     0.09100
H1059       H  0.43710689  0.73720504  0.79291999     0.07200
Br1060     Br  0.50179545  0.72495233  0.81848716    -0.03400
C1061       C  0.01670231  0.45835311  0.81407881    -0.10100
C1062       C  0.99993789  0.48291813  0.79664029     0.06100
C1063       C  0.01825488  0.50569668  0.77810808    -0.03800
C1064       C  0.05254643  0.50410311  0.77826115    -0.08300
C1065       C  0.06931425  0.47970528  0.79592274     0.05200
C1066       C  0.05092515  0.45620155  0.81351440    -0.03300
Br1067     Br  0.07046101  0.42084860  0.83786067    -0.03000
H1068       H  0.00306343  0.44056947  0.82836239     0.09100
H1069       H  0.06613739  0.52135414  0.76338182     0.07200
Br1070     Br  0.99832367  0.53746471  0.74958767    -0.03400
C1071       C  0.20752750  0.54070282  0.79663010    -0.10100
C1072       C  0.17379167  0.54013695  0.78921119     0.06100
C1073       C  0.15834247  0.57024062  0.78076911    -0.03800
C1074       C  0.17648768  0.59928750  0.77987395    -0.08300
C1075       C  0.21023528  0.59982018  0.78675546     0.05200
C1076       C  0.22573603  0.56991648  0.79558450    -0.03300
Br1077     Br  0.27131396  0.56666883  0.80744458    -0.03000
H1078       H  0.21997584  0.51823509  0.80356532     0.09100
H1079       H  0.16403879  0.62160715  0.77245943     0.07200
Br1080     Br  0.11319178  0.57470557  0.76785939    -0.03400
C1081       C  0.26929856  0.54622797  0.65635329    -0.10100
C1082       C  0.29555639  0.54093040  0.63472983     0.06100
C1083       C  0.31867824  0.56592689  0.62908535    -0.03800
C1084       C  0.31530382  0.59591225  0.64554232    -0.08300
C1085       C  0.28917918  0.60092029  0.66748380     0.05200
C1086       C  0.26592243  0.57606467  0.67270312    -0.03300
Br1087     Br  0.22885760  0.58193890  0.70129092    -0.03000
H1088       H  0.25115275  0.52717583  0.66026093     0.09100
H1089       H  0.33342576  0.61503765  0.64183967     0.07200
Br1090     Br  0.35605540  0.55948860  0.60096517    -0.03400
C1091       C  0.21054022  0.84649084  0.58641660    -0.10100
C1092       C  0.23077760  0.83947172  0.55922618     0.06100
C1093       C  0.25642518  0.81645514  0.56280333    -0.03800
C1094       C  0.26072258  0.80017204  0.59269121    -0.08300
C1095       C  0.24036595  0.80685636  0.61982124     0.05200
C1096       C  0.21512631  0.83043520  0.61656531    -0.03300
Br1097     Br  0.18534218  0.84042873  0.65185576    -0.03000
H1098       H  0.19093800  0.86437517  0.58412147     0.09100
H1099       H  0.28078885  0.78279647  0.59505250     0.07200
Br1100     Br  0.28833024  0.80857125  0.52885074    -0.03400
C1101       C  0.51710946  0.71988840  0.47610048    -0.10100
C1102       C  0.49972921  0.70205719  0.49974175     0.06100
C1103       C  0.51675833  0.68309225  0.52304419    -0.03800
C1104       C  0.55094744  0.68281966  0.52253789    -0.08300
C1105       C  0.56833007  0.70116423  0.49913983     0.05200
C1106       C  0.55111631  0.71982266  0.47564293    -0.03300
Br1107     Br  0.57173306  0.74812636  0.44397334    -0.03000
H1108       H  0.50416073  0.73507079  0.45852422     0.09100
H1109       H  0.56401400  0.66815316  0.54045161     0.07200
Br1110     Br  0.49502648  0.65622297  0.55513013    -0.03400
C1111       C  0.36665595  0.70548376  0.56093687    -0.10100
C1112       C  0.39729480  0.72073205  0.55906655     0.06100
C1113       C  0.40921415  0.73912069  0.58574683    -0.03800
C1114       C  0.39013135  0.74193923  0.61394645    -0.08300
C1115       C  0.35957965  0.72603025  0.61632009     0.05200
C1116       C  0.34790635  0.70735236  0.58931287    -0.03300
Br1117     Br  0.30823705  0.68153211  0.58898990    -0.03000
H1118       H  0.35765353  0.69105462  0.54040281     0.09100
H1119       H  0.39948831  0.75651886  0.63416837     0.07200
Br1120     Br  0.45048625  0.76190963  0.58489148    -0.03400
C1121       C  0.44367270  0.29723745  0.76257913    -0.10100
C1122       C  0.41655471  0.31079988  0.74653364     0.06100
C1123       C  0.41957246  0.34049017  0.72947812    -0.03800
C1124       C  0.44950680  0.35690050  0.72971298    -0.08300
C1125       C  0.47684276  0.34377139  0.74628020     0.05200
C1126       C  0.47378043  0.31328328  0.76261550    -0.03300
Br1127     Br  0.50854323  0.29205730  0.78645869    -0.03000
H1128       H  0.44128608  0.27406140  0.77543872     0.09100
H1129       H  0.45151953  0.37967822  0.71616545     0.07200
Br1130     Br  0.38455046  0.35804180  0.70331128    -0.03400
C1131       C  0.44846709  0.16491789  0.87169241    -0.10100
C1132       C  0.47818604  0.17283856  0.85577038     0.06100
C1133       C  0.47650242  0.18555307  0.82344054    -0.03800
C1134       C  0.44596991  0.19148947  0.80894610    -0.08300
C1135       C  0.41621181  0.18452670  0.82518700     0.05200
C1136       C  0.41785764  0.17017516  0.85676772    -0.03300
Br1137     Br  0.37983402  0.15560872  0.88064814    -0.03000
H1138       H  0.44890596  0.15433087  0.89605103     0.09100
H1139       H  0.44571544  0.20229107  0.78466037     0.07200
Br1140     Br  0.51407947  0.19694081  0.79711314    -0.03400
C1141       C  0.27792052  0.38965830  0.68784805    -0.10100
C1142       C  0.29335292  0.36191836  0.67442292     0.06100
C1143       C  0.30980409  0.36392225  0.64413979    -0.03800
C1144       C  0.31038400  0.39366271  0.62750968    -0.08300
C1145       C  0.29472504  0.42150896  0.64066884     0.05200
C1146       C  0.27812525  0.41938533  0.67107020    -0.03300
Br1147     Br  0.25291982  0.45485350  0.68974426    -0.03000
H1148       H  0.26484800  0.38789907  0.71102096     0.09100
H1149       H  0.32335264  0.39509132  0.60427017     0.07200
Br1150     Br  0.33327804  0.32738162  0.62532565    -0.03400
C1151       C  0.17702234  0.35998002  0.77616295    -0.10100
C1152       C  0.20813604  0.35767965  0.79077753     0.06100
C1153       C  0.22107482  0.38573378  0.80663387    -0.03800
C1154       C  0.20381759  0.41553339  0.80608151    -0.08300
C1155       C  0.17307128  0.41800774  0.79075998     0.05200
C1156       C  0.15942705  0.38951161  0.77612515    -0.03300
Br1157     Br  0.11795445  0.38905247  0.75361700    -0.03000
H1158       H  0.16667652  0.33890833  0.76356147     0.09100
H1159       H  0.21422638  0.43675789  0.81836000     0.07200
Br1160     Br  0.26095777  0.38460920  0.83137296    -0.03400
C1161       C  0.24616666  0.99621386  0.52204945    -0.10100
C1162       C  0.22720886  0.01416827  0.49961314     0.06100
C1163       C  0.20680457  0.99692995  0.47747377    -0.03800
C1164       C  0.20580310  0.96250564  0.47816487    -0.08300
C1165       C  0.22465357  0.94461139  0.50078761     0.05200
C1166       C  0.24521584  0.96188162  0.52276627    -0.03300
Br1167     Br  0.27480995  0.94029160  0.55247645    -0.03000
H1168       H  0.26272667  0.00890203  0.53849427     0.09100
H1169       H  0.18989058  0.94964466  0.46114336     0.07200
Br1170     Br  0.17849713  0.01887373  0.44688449    -0.03400
C1171       C  0.25724100  0.12182481  0.61802045    -0.10100
C1172       C  0.24890381  0.15533547  0.61949966     0.06100
C1173       C  0.23667183  0.17036362  0.59063200    -0.03800
C1174       C  0.23370559  0.15205737  0.56146948    -0.08300
C1175       C  0.24223977  0.11856356  0.55999004     0.05200
C1176       C  0.25410052  0.10349621  0.58902312    -0.03300
Br1177     Br  0.26864849  0.05862228  0.59138745    -0.03000
H1178       H  0.26715506  0.10972072  0.63950337     0.09100
H1179       H  0.22413001  0.16413277  0.53982487     0.07200
Br1180     Br  0.22197847  0.21525188  0.58911768    -0.03400
C1181       C  0.25764599  0.12024696  0.38078993    -0.10100
C1182       C  0.24469268  0.15209808  0.37750981     0.06100
C1183       C  0.22803769  0.16616982  0.40478841    -0.03800
C1184       C  0.22577259  0.14886787  0.43451670    -0.08300
C1185       C  0.23944691  0.11734569  0.43790216     0.05200
C1186       C  0.25544133  0.10302813  0.41044537    -0.03300
Br1187     Br  0.27778162  0.06141885  0.41233845    -0.03000
H1188       H  0.27096134  0.10908314  0.36053114     0.09100
H1189       H  0.21297329  0.16006764  0.45508577     0.07200
Br1190     Br  0.20681506  0.20835740  0.40307312    -0.03400
C1191       C  0.52257477  0.24467271  0.47883174    -0.10100
C1192       C  0.50303555  0.22627783  0.50030364     0.06100
C1193       C  0.51793079  0.20399737  0.52223729    -0.03800
C1194       C  0.55193749  0.20013153  0.52187401    -0.08300
C1195       C  0.57135119  0.21831419  0.50016589     0.05200
C1196       C  0.55657294  0.24129193  0.47894962    -0.03300
Br1197     Br  0.58145678  0.27098040  0.45194087    -0.03000
H1198       H  0.51142404  0.26256875  0.46265076     0.09100
H1199       H  0.56325277  0.18260543  0.53835644     0.07200
Br1200     Br  0.49341557  0.17705681  0.55220139    -0.03400
C1201       C  0.41600977  0.24812945  0.58783439    -0.10100
C1202       C  0.39937843  0.23762854  0.55941077     0.06100
C1203       C  0.36658152  0.22668484  0.56217741    -0.03800
C1204       C  0.35095957  0.22764569  0.59256113    -0.08300
C1205       C  0.36753508  0.23826019  0.62075860     0.05200
C1206       C  0.40052399  0.24824921  0.61842792    -0.03300
Br1207     Br  0.42529855  0.26348635  0.65560813    -0.03000
H1208       H  0.44123862  0.25643125  0.58631295     0.09100
H1209       H  0.32586058  0.21893604  0.59437202     0.07200
Br1210     Br  0.34212061  0.20701830  0.52702764    -0.03400
C1211       C  0.39715778  0.24484335  0.37923692    -0.10100
C1212       C  0.36391088  0.23598909  0.38013144     0.06100
C1213       C  0.34889410  0.22924282  0.41054783    -0.03800
C1214       C  0.36712036  0.23179420  0.43921576    -0.08300
C1215       C  0.40056079  0.24018352  0.43863304     0.05200
C1216       C  0.41561140  0.24699058  0.40801004    -0.03300
Br1217     Br  0.46053231  0.26046817  0.40291216    -0.03000
H1218       H  0.40883874  0.25047774  0.35597227     0.09100
H1219       H  0.35500828  0.22603343  0.46204623     0.07200
Br1220     Br  0.30455180  0.21369991  0.41499615    -0.03400
C1221       C  0.44249066  0.66638268  0.23513070    -0.10100
C1222       C  0.41615442  0.65329580  0.25294453     0.06100
C1223       C  0.41956940  0.62293369  0.26886982    -0.03800
C1224       C  0.44893869  0.60567096  0.26616018    -0.08300
C1225       C  0.47533429  0.61852365  0.24818801     0.05200
C1226       C  0.47199604  0.64920299  0.23244339    -0.03300
Br1227     Br  0.50550831  0.66797264  0.20506448    -0.03000
H1228       H  0.43977474  0.68966729  0.22254528     0.09100
H1229       H  0.45144690  0.58250506  0.27897708     0.07200
Br1230     Br  0.38613541  0.60530211  0.29686130    -0.03400
C1231       C  0.44631808  0.78948060  0.12535927    -0.10100
C1232       C  0.47593660  0.78269721  0.14204101     0.06100
C1233       C  0.47377472  0.77192986  0.17501917    -0.03800
C1234       C  0.44301565  0.76783845  0.18987878    -0.08300
C1235       C  0.41338233  0.77370497  0.17298414     0.05200
C1236       C  0.41545797  0.78488841  0.14015868    -0.03300
Br1237     Br  0.37767966  0.79444649  0.11359280    -0.03000
H1238       H  0.44696111  0.79800364  0.10018744     0.09100
H1239       H  0.44249427  0.75888393  0.21490333     0.07200
Br1240     Br  0.51099014  0.76025161  0.20158329    -0.03400
C1241       C  0.35075269  0.73567309  0.40719976    -0.10100
C1242       C  0.36603115  0.72377809  0.37875143     0.06100
C1243       C  0.39770428  0.71016302  0.38043677    -0.03800
C1244       C  0.41329953  0.70809650  0.41075712    -0.08300
C1245       C  0.39793435  0.71967152  0.43960061     0.05200
C1246       C  0.36634728  0.73418536  0.43744213    -0.03300
Br1247     Br  0.34275207  0.75401524  0.47347115    -0.03000
H1248       H  0.32651727  0.74668093  0.40577762     0.09100
H1249       H  0.43740607  0.69683960  0.41169316     0.07200
Br1250     Br  0.41996223  0.69211674  0.34278422    -0.03400
C1251       C  0.22197019  0.79327231  0.40228599    -0.10100
C1252       C  0.24142079  0.80808002  0.37787823     0.06100
C1253       C  0.25346183  0.84018518  0.38358587    -0.03800
C1254       C  0.24642174  0.85632444  0.41318241    -0.08300
C1255       C  0.22784633  0.84119222  0.43797625     0.05200
C1256       C  0.21499628  0.80950311  0.43199555    -0.03300
Br1257     Br  0.18650790  0.78773079  0.46260091    -0.03000
H1258       H  0.21200769  0.76892442  0.39820530     0.09100
H1259       H  0.25679468  0.88048544  0.41734114     0.07200
Br1260     Br  0.28225598  0.86259846  0.35366955    -0.03400
C1261       C  0.01704136  0.50318034  0.18201649    -0.10100
C1262       C  0.99973109  0.47728353  0.19696251     0.06100
C1263       C  0.01795444  0.45254123  0.21313049    -0.03800
C1264       C  0.05234997  0.45401791  0.21373635    -0.08300
C1265       C  0.06963006  0.47995616  0.19891381     0.05200
C1266       C  0.05145732  0.50468041  0.18270154    -0.03300
Br1267     Br  0.07174678  0.54007141  0.15909493    -0.03000
H1268       H  0.00371323  0.52232058  0.16925051     0.09100
H1269       H  0.06568487  0.43496146  0.22662332     0.07200
Br1270     Br  0.99788808  0.41725446  0.23711706    -0.03400
C1271       C  0.15964250  0.56951896  0.19723720    -0.10100
C1272       C  0.17538215  0.54017303  0.20664827     0.06100
C1273       C  0.20828706  0.54215840  0.21778994    -0.03800
C1274       C  0.22426492  0.57249119  0.21891898    -0.08300
C1275       C  0.20834159  0.60190070  0.21032563     0.05200
C1276       C  0.17550100  0.60005478  0.19908564    -0.03300
Br1277     Br  0.15051719  0.63766735  0.18530606    -0.03000
H1278       H  0.13459882  0.56890254  0.18843658     0.09100
H1279       H  0.24915671  0.57307043  0.22820519     0.07200
Br1280     Br  0.23290476  0.50575674  0.23505328    -0.03400
C1281       C  0.15948152  0.39297517  0.22365865    -0.10100
C1282       C  0.17380209  0.41846956  0.20543804     0.06100
C1283       C  0.20472727  0.41291909  0.19050170    -0.03800
C1284       C  0.22024141  0.38231519  0.19370207    -0.08300
C1285       C  0.20595835  0.35685180  0.21208453     0.05200
C1286       C  0.17541317  0.36273762  0.22761952    -0.03300
Br1287     Br  0.15575636  0.33230383  0.25768536    -0.03000
H1288       H  0.13624652  0.39703515  0.23608934     0.09100
H1289       H  0.24384107  0.37848623  0.18190208     0.07200
Br1290     Br  0.22686365  0.44544224  0.16456053    -0.03400
C1291       C  0.26288441  0.49383715  0.48456185    -0.10100
C1292       C  0.28513952  0.47455185  0.46664520     0.06100
C1293       C  0.30761538  0.45405863  0.48304589    -0.03800
C1294       C  0.30910057  0.45501836  0.51715216    -0.08300
C1295       C  0.28793632  0.47555005  0.53496154     0.05200
C1296       C  0.26360069  0.49379922  0.51871998    -0.03300
Br1297     Br  0.22931757  0.51651352  0.54207155    -0.03000
H1298       H  0.24459565  0.50846299  0.47194540     0.09100
H1299       H  0.32732105  0.44030970  0.52977682     0.07200
Br1300     Br  0.33802702  0.42580057  0.46036536    -0.03400
C1301       C  0.30078662  0.53962352  0.33294653    -0.10100
C1302       C  0.29067441  0.53981999  0.36592269     0.06100
C1303       C  0.28333784  0.57029502  0.38112041    -0.03800
C1304       C  0.28514582  0.59920335  0.36288214    -0.08300
C1305       C  0.29368057  0.59890788  0.32937188     0.05200
C1306       C  0.30213281  0.56837081  0.31452192    -0.03300
Br1307     Br  0.31450562  0.56223016  0.26916400    -0.03000
H1308       H  0.30718659  0.51667047  0.32093884     0.09100
H1309       H  0.27881418  0.62207400  0.37505674     0.07200
Br1310     Br  0.26849982  0.57511519  0.42579829    -0.03400
C1311       C  0.26428240  0.38608147  0.31531012    -0.10100
C1312       C  0.28384138  0.36021890  0.32677797     0.06100
C1313       C  0.30257602  0.36394368  0.35539280    -0.03800
C1314       C  0.30159636  0.39363446  0.37226532    -0.08300
C1315       C  0.28203867  0.41967754  0.36100693     0.05200
C1316       C  0.26291062  0.41573588  0.33249737    -0.03300
Br1317     Br  0.23262204  0.44866104  0.31759833    -0.03000
H1318       H  0.24948095  0.38287266  0.29342195     0.09100
H1319       H  0.31655962  0.39652264  0.39403680     0.07200
Br1320     Br  0.33109632  0.32985556  0.37131537    -0.03400
C1321       C  0.12240213  0.28691570  0.36991782    -0.10100
C1322       C  0.09346904  0.27433981  0.35574595     0.06100
C1323       C  0.09554143  0.26004094  0.32401821    -0.03800
C1324       C  0.12601964  0.25700927  0.30845112    -0.08300
C1325       C  0.15507523  0.26847412  0.32313961     0.05200
C1326       C  0.15281726  0.28462369  0.35382454    -0.03300
Br1327     Br  0.18962216  0.30591773  0.37424336    -0.03000
H1328       H  0.12138672  0.29901057  0.39365601     0.09100
H1329       H  0.12696076  0.24476606  0.28477363     0.07200
Br1330     Br  0.05874299  0.24241862  0.30034505    -0.03400
C1331       C  0.93468701  0.28475633  0.31530029    -0.10100
C1332       C  0.90997385  0.26556371  0.32982187     0.06100
C1333       C  0.91638415  0.25077428  0.36054373    -0.03800
C1334       C  0.94687670  0.25538038  0.37578788    -0.08300
C1335       C  0.97180228  0.27405692  0.36092034     0.05200
C1336       C  0.96522979  0.28916218  0.33042393    -0.03300
Br1337     Br  0.99600246  0.31742377  0.30863640    -0.03000
H1338       H  0.93022421  0.29648717  0.29186480     0.09100
H1339       H  0.95151454  0.24325800  0.39898413     0.07200
Br1340     Br  0.88609964  0.22156710  0.38177476    -0.03400
C1341       C  0.12045737  0.10513161  0.26630576    -0.10100
C1342       C  0.09560394  0.11486985  0.24471996     0.06100
C1343       C  0.10151428  0.14018608  0.22205161    -0.03800
C1344       C  0.13188992  0.15586336  0.22193974    -0.08300
C1345       C  0.15661256  0.14682429  0.24423351     0.05200
C1346       C  0.15070527  0.12094655  0.26654794    -0.03300
Br1347     Br  0.18116172  0.10738955  0.29995897    -0.03000
H1348       H  0.11589229  0.08588369  0.28404291     0.09100
H1349       H  0.13614496  0.17529929  0.20430987     0.07200
Br1350     Br  0.06979393  0.15339884  0.18979359    -0.03400
C1351       C  0.94121293  0.16523040  0.26785067    -0.10100
C1352       C  0.91533018  0.15171046  0.24974968     0.06100
C1353       C  0.91969694  0.12265104  0.23165795    -0.03800
C1354       C  0.95003499  0.10715981  0.23217508    -0.08300
C1355       C  0.97593224  0.12031204  0.25061008     0.05200
C1356       C  0.97150700  0.14951093  0.26871975    -0.03300
Br1357     Br  0.00454342  0.16733840  0.29720092    -0.03000
H1358       H  0.93754630  0.18761976  0.28194494     0.09100
H1359       H  0.95346262  0.08474408  0.21809060     0.07200
Br1360     Br  0.88566046  0.10406897  0.20482046    -0.03400
C1361       C  0.97435725  0.68841966  0.33143144    -0.10100
C1362       C  0.97422213  0.67457156  0.36294589     0.06100
C1363       C  0.94360458  0.66449414  0.37615689    -0.03800
C1364       C  0.91431889  0.67059518  0.35888616    -0.08300
C1365       C  0.91454993  0.68545454  0.32772279     0.05200
C1366       C  0.94547250  0.69369410  0.31381597    -0.03300
Br1367     Br  0.95152608  0.71370274  0.27151536    -0.03000
H1368       H  0.99725132  0.69592801  0.32026872     0.09100
H1369       H  0.89121920  0.66321084  0.36979759     0.07200
Br1370     Br  0.93969501  0.64003803  0.41616777    -0.03400
C1371       C  0.12788454  0.70540826  0.31744389    -0.10100
C1372       C  0.15624890  0.68835835  0.32715839     0.06100
C1373       C  0.15389934  0.66608669  0.35354454    -0.03800
C1374       C  0.12389911  0.66233089  0.37036200    -0.08300
C1375       C  0.09558535  0.67982885  0.36088861     0.05200
C1376       C  0.09792869  0.70145148  0.33383758    -0.03300
Br1377     Br  0.06224477  0.72858329  0.31919288    -0.03000
H1378       H  0.12919193  0.72278588  0.29735684     0.09100
H1379       H  0.12255130  0.64517489  0.39061036     0.07200
Br1380     Br  0.19003915  0.63843802  0.36590325    -0.03400
C1381       C  0.00680046  0.99786974  0.24442967    -0.10100
C1382       C  0.03103080  0.01554861  0.26128439     0.06100
C1383       C  0.05334742  0.99897982  0.28168749    -0.03800
C1384       C  0.05282752  0.96482649  0.28292241    -0.08300
C1385       C  0.02960619  0.94695923  0.26491733     0.05200
C1386       C  0.00576687  0.96371948  0.24617895    -0.03300
Br1387     Br  0.97281980  0.94172556  0.22047046    -0.03000
H1388       H  0.98925666  0.01059136  0.22901005     0.09100
H1389       H  0.07048405  0.95213758  0.29822575     0.07200
Br1390     Br  0.08343890  0.02173196  0.30999030    -0.03400
C1391       C  0.91924086  0.83058683  0.28116915    -0.10100
C1392       C  0.91655125  0.80655007  0.25639569     0.06100
C1393       C  0.94406161  0.79919235  0.23648662    -0.03800
C1394       C  0.97333271  0.81588469  0.24165179    -0.08300
C1395       C  0.97560061  0.84045222  0.26569161     0.05200
C1396       C  0.94846164  0.84761455  0.28589846    -0.03300
Br1397     Br  0.95028598  0.87911925  0.32114945    -0.03000
H1398       H  0.89863583  0.83596593  0.29723149     0.09100
H1399       H  0.99405832  0.81065481  0.22569767     0.07200
Br1400     Br  0.94317154  0.76891170  0.20007878    -0.03400
C1401       C  0.12924615  0.80608899  0.22923782    -0.10100
C1402       C  0.15298344  0.81015641  0.25380248     0.06100
C1403       C  0.14688922  0.83217341  0.28009321    -0.03800
C1404       C  0.11782065  0.85024935  0.28082467    -0.08300
C1405       C  0.09419249  0.84598558  0.25637581     0.05200
C1406       C  0.09987212  0.82371467  0.23043245    -0.03300
Br1407     Br  0.06884326  0.81729754  0.19556651    -0.03000
H1408       H  0.13368951  0.78940760  0.20888910     0.09100
H1409       H  0.11300587  0.86668214  0.30131347     0.07200
Br1410     Br  0.17548857  0.83653906  0.31733503    -0.03400
C1411       C  0.06203888  0.67787450  0.52147151    -0.10100
C1412       C  0.03249856  0.67028890  0.53785160     0.06100
C1413       C  0.00509682  0.66125613  0.51842686    -0.03800
C1414       C  0.00747458  0.66135845  0.48406427    -0.08300
C1415       C  0.03671300  0.66980128  0.46758766     0.05200
C1416       C  0.06451189  0.67764621  0.48705852    -0.03300
Br1417     Br  0.10671498  0.68950161  0.46941495    -0.03000
H1418       H  0.08357104  0.68465811  0.53550490     0.09100
H1419       H  0.98595501  0.65452219  0.47015344     0.07200
Br1420     Br  0.96367822  0.64706237  0.53620596    -0.03400
C1421       C  0.12352775  0.70039405  0.69020371    -0.10100
C1422       C  0.15246352  0.68792200  0.67586769     0.06100
C1423       C  0.15015751  0.67104577  0.64559413    -0.03800
C1424       C  0.11966613  0.66807839  0.62995590    -0.08300
C1425       C  0.09080912  0.68127478  0.64389436     0.05200
C1426       C  0.09305010  0.69734066  0.67476044    -0.03300
Br1427     Br  0.05657853  0.71795550  0.69687346    -0.03000
H1428       H  0.12466238  0.71370379  0.71329299     0.09100
H1429       H  0.11855703  0.65505350  0.60672202     0.07200
Br1430     Br  0.18715234  0.65004229  0.62494245    -0.03400
C1431       C  0.94319297  0.69478800  0.62606487    -0.10100
C1432       C  0.96946071  0.67927666  0.64207210     0.06100
C1433       C  0.96485159  0.66857057  0.67478457    -0.03800
C1434       C  0.93524327  0.67522002  0.69117803    -0.08300
C1435       C  0.90929270  0.69168369  0.67548003     0.05200
C1436       C  0.91342261  0.70100705  0.64221178    -0.03300
Br1437     Br  0.88070383  0.72435484  0.61748509    -0.03000
H1438       H  0.94612096  0.70316098  0.60098877     0.09100
H1439       H  0.93236039  0.66701795  0.71631987     0.07200
Br1440     Br  0.99684014  0.64273984  0.69787018    -0.03400
C1441       C  0.11963178  0.85832474  0.76054749    -0.10100
C1442       C  0.09065670  0.84054718  0.76650426     0.06100
C1443       C  0.09262970  0.80625498  0.77105476    -0.03800
C1444       C  0.12284612  0.79058271  0.76764165    -0.08300
C1445       C  0.15163870  0.80833009  0.76050761     0.05200
C1446       C  0.14984936  0.84285791  0.75764489    -0.03300
Br1447     Br  0.18684052  0.87149804  0.75049846    -0.03000
H1448       H  0.11904446  0.88473026  0.75765797     0.09100
H1449       H  0.12362310  0.76415030  0.77063933     0.07200
Br1450     Br  0.05615568  0.77899937  0.78348890    -0.03400
C1451       C  0.93590033  0.80058923  0.73869542    -0.10100
C1452       C  0.90957011  0.81335094  0.75689989     0.06100
C1453       C  0.91325353  0.84276452  0.77469520    -0.03800
C1454       C  0.94360566  0.85849819  0.77475036    -0.08300
C1455       C  0.97030921  0.84529601  0.75719110     0.05200
C1456       C  0.96609730  0.81650739  0.73832930    -0.03300
Br1457     Br  0.99955678  0.79888532  0.70989943    -0.03000
H1458       H  0.93278597  0.77829699  0.72436220     0.09100
H1459       H  0.94659038  0.88062819  0.78933576     0.07200
Br1460     Br  0.87854567  0.86111400  0.80105313    -0.03400
C1461       C  0.06243933  0.26251248  0.47939544    -0.10100
C1462       C  0.03662289  0.27877366  0.46317554     0.06100
C1463       C  0.01236797  0.29469829  0.48242853    -0.03800
C1464       C  0.01400883  0.29358763  0.51674597    -0.08300
C1465       C  0.03946042  0.27695223  0.53303079     0.05200
C1466       C  0.06390402  0.26119434  0.51386647    -0.03300
Br1467     Br  0.09821592  0.23503982  0.53286055    -0.03000
H1468       H  0.08109450  0.24978401  0.46518171     0.09100
H1469       H  0.99516355  0.30613575  0.53087289     0.07200
Br1470     Br  0.97703640  0.31990520  0.46391333    -0.03400
C1471       C  0.12563975  0.28771236  0.62687182    -0.10100
C1472       C  0.09636754  0.27586045  0.64112976     0.06100
C1473       C  0.09790876  0.26373870  0.67368802    -0.03800
C1474       C  0.12790473  0.26301175  0.69042264    -0.08300
C1475       C  0.15750927  0.27271669  0.67542888     0.05200
C1476       C  0.15582939  0.28645772  0.64359723    -0.03300
Br1477     Br  0.19319720  0.30569963  0.62216779    -0.03000
H1478       H  0.12514624  0.29809410  0.60240985     0.09100
H1479       H  0.12817071  0.25281481  0.71496894     0.07200
Br1480     Br  0.06128394  0.24452259  0.69648163    -0.03400
C1481       C  0.96945668  0.29063369  0.66464557    -0.10100
C1482       C  0.97454304  0.27299532  0.63526940     0.06100
C1483       C  0.94840751  0.25374377  0.62280041    -0.03800
C1484       C  0.91877741  0.25153510  0.64025897    -0.08300
C1485       C  0.91409981  0.26834531  0.67010965     0.05200
C1486       C  0.93950664  0.28885597  0.68174515    -0.03300
Br1487     Br  0.93384735  0.31664540  0.71955727    -0.03000
H1488       H  0.98875604  0.30627300  0.67416673     0.09100
H1489       H  0.89962165  0.23558076  0.63093904     0.07200
Br1490     Br  0.95194234  0.22775649  0.58341968    -0.03400
C1491       C  0.06059763  0.99664490  0.74955803    -0.10100
C1492       C  0.03714223  0.01420981  0.76773050     0.06100
C1493       C  0.01250900  0.99728595  0.78519269    -0.03800
C1494       C  0.01148618  0.96318281  0.78374951    -0.08300
C1495       C  0.03468793  0.94571297  0.76524832     0.05200
C1496       C  0.05939764  0.96258939  0.74788207    -0.03300
Br1497     Br  0.09019111  0.94113720  0.71900873    -0.03000
H1498       H  0.07916066  0.00951986  0.73548683     0.09100
H1499       H  0.99270980  0.95020690  0.79744212     0.07200
Br1500     Br  0.98055760  0.01883090  0.81260662    -0.03400
C1501       C  0.10352323  0.13841654  0.73357109    -0.10100
C1502       C  0.09869772  0.11616172  0.75933783     0.06100
C1503       C  0.12434949  0.10971577  0.78163193    -0.03800
C1504       C  0.15408199  0.12622289  0.77827017    -0.08300
C1505       C  0.15847850  0.14883468  0.75290020     0.05200
C1506       C  0.13348861  0.15438854  0.72996705    -0.03300
Br1507     Br  0.14025537  0.18172236  0.69235094    -0.03000
H1508       H  0.08428428  0.14270084  0.71574059     0.09100
H1509       H  0.17354596  0.12201060  0.79590442     0.07200
Br1510     Br  0.11960409  0.08042320  0.81821950    -0.03400
C1511       C  0.94430055  0.16212523  0.73722232    -0.10100
C1512       C  0.91722339  0.14865720  0.75357619     0.06100
C1513       C  0.92044507  0.11912937  0.77092898    -0.03800
C1514       C  0.95091678  0.10383529  0.77225642    -0.08300
C1515       C  0.97834440  0.11731471  0.75619070     0.05200
C1516       C  0.97474108  0.14654597  0.73801713    -0.03300
Br1517     Br  0.00921713  0.16549132  0.71201171    -0.03000
H1518       H  0.94159347  0.18469466  0.72339762     0.09100
H1519       H  0.95319418  0.08153387  0.78645262     0.07200
Br1520     Br  0.88483376  0.09978347  0.79500640    -0.03400
C1521       C  0.37103403  0.04197782  0.28051817    -0.10100
C1522       C  0.39786300  0.04166564  0.30203103     0.06100
C1523       C  0.40824665  0.07171387  0.31619437    -0.03800
C1524       C  0.39146575  0.10098973  0.30898823    -0.08300
C1525       C  0.36425819  0.10109071  0.28783064     0.05200
C1526       C  0.35455943  0.07110776  0.27304345    -0.03300
Br1527     Br  0.32073900  0.06803629  0.24036279    -0.03000
H1528       H  0.36326880  0.01942649  0.26862317     0.09100
H1529       H  0.39931637  0.12367826  0.32053970     0.07200
Br1530     Br  0.44372974  0.07435039  0.34705550    -0.03400
C1531       C  0.36357316  0.92151769  0.29036759    -0.10100
C1532       C  0.39371270  0.92054208  0.30696758     0.06100
C1533       C  0.40511612  0.88973933  0.31840990    -0.03800
C1534       C  0.38783722  0.86084397  0.31071783    -0.08300
C1535       C  0.35821560  0.86174878  0.29300933     0.05200
C1536       C  0.34558072  0.89298182  0.28396824    -0.03300
Br1537     Br  0.30413044  0.89975130  0.26261660    -0.03000
H1538       H  0.35388534  0.94475985  0.28178397     0.09100
H1539       H  0.39734865  0.83752580  0.31928379     0.07200
Br1540     Br  0.44253204  0.88533376  0.34672327    -0.03400
C1541       C  0.25314966  0.04675675  0.15766536    -0.10100
C1542       C  0.27743915  0.03957472  0.13447440     0.06100
C1543       C  0.30238408  0.06242011  0.12777642    -0.03800
C1544       C  0.30261605  0.09234239  0.14442784    -0.08300
C1545       C  0.27841569  0.09960120  0.16796167     0.05200
C1546       C  0.25320137  0.07662284  0.17429094    -0.03300
Br1547     Br  0.21707692  0.08473617  0.20373504    -0.03000
H1548       H  0.23362946  0.02928180  0.16233448     0.09100
H1549       H  0.32236014  0.10953460  0.13971263     0.07200
Br1550     Br  0.33806224  0.05294330  0.09835797    -0.03400
C1551       C  0.25344307  0.89338161  0.12350872    -0.10100
C1552       C  0.27274113  0.91991283  0.13444017     0.06100
C1553       C  0.29327575  0.91572047  0.16208506    -0.03800
C1554       C  0.29460544  0.88537777  0.17750528    -0.08300
C1555       C  0.27468824  0.85948242  0.16736697     0.05200
C1556       C  0.25399523  0.86330948  0.14004277    -0.03300
Br1557     Br  0.22537164  0.82881378  0.12537551    -0.03000
H1558       H  0.23737744  0.89624615  0.10252247     0.09100
H1559       H  0.31178890  0.88170058  0.19734351     0.07200
Br1560     Br  0.32124186  0.94936569  0.17995919    -0.03400
C1561       C  0.66298883  0.06958711  0.68435615    -0.10100
C1562       C  0.67494174  0.03992871  0.69752875     0.06100
C1563       C  0.70455307  0.04078736  0.71565757    -0.03800
C1564       C  0.72110945  0.07051626  0.72020889    -0.08300
C1565       C  0.70911114  0.10021413  0.70752078     0.05200
C1566       C  0.67972761  0.09945812  0.68902084    -0.03300
Br1567     Br  0.66189994  0.13780775  0.66814236    -0.03000
H1568       H  0.64056436  0.06954864  0.67008838     0.09100
H1569       H  0.74314449  0.07052297  0.73491131     0.07200
Br1570     Br  0.72290572  0.00325094  0.73763333    -0.03400
C1571       C  0.71862518  0.88251198  0.68994660    -0.10100
C1572       C  0.70207627  0.85759034  0.70728915     0.06100
C1573       C  0.66888328  0.86302558  0.71605977    -0.03800
C1574       C  0.65382107  0.89312135  0.70925877    -0.08300
C1575       C  0.67075284  0.91848502  0.69322846     0.05200
C1576       C  0.70321624  0.91245781  0.68248780    -0.03300
Br1577     Br  0.72710223  0.94309498  0.65584422    -0.03000
H1578       H  0.74374342  0.87865735  0.68194270     0.09100
H1579       H  0.62879794  0.89698424  0.71756688     0.07200
Br1580     Br  0.64262093  0.83169304  0.73903725    -0.03400
C1581       C  0.80750189  0.03828200  0.83561296    -0.10100
C1582       C  0.80679059  0.03939933  0.87007304     0.06100
C1583       C  0.80127549  0.07003655  0.88573559    -0.03800
C1584       C  0.79737688  0.09842245  0.86677289    -0.08300
C1585       C  0.79825528  0.09722747  0.83219406     0.05200
C1586       C  0.80304710  0.06633388  0.81669115    -0.03300
Br1587     Br  0.80315781  0.05904634  0.76993848    -0.03000
H1588       H  0.81152003  0.01516986  0.82291420     0.09100
H1589       H  0.79353444  0.12162874  0.87935030     0.07200
Br1590     Br  0.79673228  0.07534784  0.93247792    -0.03400
C1591       C  0.77936111  0.91935358  0.84349127    -0.10100
C1592       C  0.80162033  0.91879662  0.86989175     0.06100
C1593       C  0.81578886  0.88843085  0.87933678    -0.03800
C1594       C  0.80851475  0.86011287  0.86154236    -0.08300
C1595       C  0.78678714  0.86095607  0.83508497     0.05200
C1596       C  0.77168166  0.89065569  0.82628124    -0.03300
Br1597     Br  0.73962668  0.89283873  0.79183745    -0.03000
H1598       H  0.76754986  0.94210975  0.83637811     0.09100
H1599       H  0.82102282  0.83745334  0.86748902     0.07200
Br1600     Br  0.84657613  0.88313951  0.91476573    -0.03400
C1601       C  0.34604613  0.31326978  0.06432194    -0.10100
C1602       C  0.33279514  0.34514339  0.06213861     0.06100
C1603       C  0.31670539  0.35847262  0.09000949    -0.03800
C1604       C  0.31405907  0.33999153  0.11882475    -0.08300
C1605       C  0.32656969  0.30782607  0.12083409     0.05200
C1606       C  0.34317413  0.29466030  0.09316451    -0.03300
Br1607     Br  0.36354126  0.25204339  0.09323096    -0.03000
H1608       H  0.35878646  0.30268222  0.04339654     0.09100
H1609       H  0.30074903  0.35049048  0.13944176     0.07200
Br1610     Br  0.29466698  0.40028978  0.08987981    -0.03400
C1611       C  0.33545477  0.30935957  0.94091097    -0.10100
C1612       C  0.33151183  0.34374992  0.94049915     0.06100
C1613       C  0.32503663  0.35893554  0.90985876    -0.03800
C1614       C  0.32250005  0.33982959  0.88135040    -0.08300
C1615       C  0.32526840  0.30538246  0.88185728     0.05200
C1616       C  0.33247623  0.29022557  0.91231613    -0.03300
Br1617     Br  0.33989676  0.24385194  0.91733556    -0.03000
H1618       H  0.34101629  0.29698925  0.96375427     0.09100
H1619       H  0.31770242  0.35231123  0.85847223     0.07200
Br1620     Br  0.31768262  0.40526881  0.90391329    -0.03400
C1621       C  0.19443793  0.18981720  0.06760793    -0.10100
C1622       C  0.17271789  0.21541816  0.06042227     0.06100
C1623       C  0.16772054  0.24128604  0.08279318    -0.03800
C1624       C  0.18505838  0.24157015  0.11198301    -0.08300
C1625       C  0.20708462  0.21621249  0.11926559     0.05200
C1626       C  0.21141298  0.18975170  0.09720192    -0.03300
Br1627     Br  0.23821400  0.15213217  0.10684700    -0.03000
H1628       H  0.19775038  0.16967158  0.05040377     0.09100
H1629       H  0.18189226  0.26212553  0.12872690     0.07200
Br1630     Br  0.13917580  0.27782246  0.07396343    -0.03400
C1631       C  0.16080192  0.20767940  0.91274330    -0.10100
C1632       C  0.17589315  0.22011600  0.94117460     0.06100
C1633       C  0.20757426  0.23405271  0.93914433    -0.03800
C1634       C  0.22336436  0.23512518  0.90890642    -0.08300
C1635       C  0.20811977  0.22276707  0.88067697     0.05200
C1636       C  0.17670078  0.20877741  0.88257552    -0.03300
Br1637     Br  0.15537255  0.18877973  0.84549943    -0.03000
H1638       H  0.13670501  0.19650432  0.91401326     0.09100
H1639       H  0.24757822  0.24608878  0.90730704     0.07200
Br1640     Br  0.23032416  0.25372645  0.97561369    -0.03400
C1641       C  0.73762443  0.60030173  0.09156958    -0.10100
C1642       C  0.73180577  0.61830424  0.06269479     0.06100
C1643       C  0.72963969  0.65300896  0.06533252    -0.03800
C1644       C  0.73503047  0.66848579  0.09563020    -0.08300
C1645       C  0.74214009  0.65054706  0.12425327     0.05200
C1646       C  0.74244345  0.61571687  0.12197762    -0.03300
Br1647     Br  0.74964303  0.58661243  0.15846674    -0.03000
H1648       H  0.73892063  0.57372808  0.09063713     0.09100
H1649       H  0.73370021  0.69506129  0.09660810     0.07200
Br1650     Br  0.71858667  0.68167349  0.02954015    -0.03400
C1651       C  0.72214808  0.62546707  0.88249491    -0.10100
C1652       C  0.74301575  0.65302794  0.88239632     0.06100
C1653       C  0.75789332  0.66252773  0.91232801    -0.03800
C1654       C  0.75186818  0.64490504  0.94104642    -0.08300
C1655       C  0.73132402  0.61731203  0.94122704     0.05200
C1656       C  0.71601576  0.60779611  0.91153357    -0.03300
Br1657     Br  0.68492580  0.57244368  0.90944941    -0.03000
H1658       H  0.71011296  0.61792712  0.85999332     0.09100
H1659       H  0.76424269  0.65243024  0.96338172     0.07200
Br1660     Br  0.78890652  0.69764117  0.91601685    -0.03400
C1661       C  0.90721841  0.71572900  0.08524654    -0.10100
C1662       C  0.89830184  0.73979812  0.06243697     0.06100
C1663       C  0.87276884  0.76196920  0.06959054    -0.03800
C1664       C  0.85693837  0.76012429  0.09979570    -0.08300
C1665       C  0.86568047  0.73592094  0.12269176     0.05200
C1666       C  0.89073246  0.71317627  0.11506429    -0.03300
Br1667     Br  0.90153108  0.67633114  0.14250923    -0.03000
H1668       H  0.92638732  0.69813407  0.07934273     0.09100
H1669       H  0.83764418  0.77768217  0.10538505     0.07200
Br1670     Br  0.85924343  0.79582412  0.03972675    -0.03400
C1671       C  0.88886394  0.72090695  0.88730495    -0.10100
C1672       C  0.86044817  0.74034125  0.88469665     0.06100
C1673       C  0.85041521  0.75957000  0.91211149    -0.03800
C1674       C  0.86922886  0.75938198  0.94062384    -0.08300
C1675       C  0.89755173  0.74002100  0.94290265     0.05200
C1676       C  0.90707951  0.72017779  0.91613807    -0.03300
Br1677     Br  0.94243474  0.68897511  0.91820670    -0.03000
H1678       H  0.89645174  0.70512975  0.86717561     0.09100
H1679       H  0.86155830  0.77443759  0.96129778     0.07200
Br1680     Br  0.81147978  0.78636279  0.91372042    -0.03400
C1681       C  0.51448127  0.00525922  0.68081177    -0.10100
C1682       C  0.49884560  0.97918291  0.69728221     0.06100
C1683       C  0.51856402  0.95389226  0.71061889    -0.03800
C1684       C  0.55274570  0.95546481  0.70761276    -0.08300
C1685       C  0.56831505  0.98157129  0.69127400     0.05200
C1686       C  0.54869050  0.00644747  0.67735448    -0.03300
Br1687     Br  0.56657872  0.04110483  0.65094863    -0.03000
H1688       H  0.49997229  0.02460451  0.66974927     0.09100
H1689       H  0.56733638  0.93612255  0.71858964     0.07200
Br1690     Br  0.50136140  0.91694404  0.73440643    -0.03400
C1691       C  0.41383870  0.06955898  0.71109628    -0.10100
C1692       C  0.39591965  0.04207392  0.70035680     0.06100
C1693       C  0.36252499  0.04625240  0.69186239    -0.03800
C1694       C  0.34788074  0.07713309  0.69515426    -0.08300
C1695       C  0.36536558  0.10418708  0.70766687     0.05200
C1696       C  0.39897922  0.10017185  0.71535008    -0.03300
Br1697     Br  0.42581719  0.13374356  0.73503609    -0.03000
H1698       H  0.43939100  0.06696042  0.71800113     0.09100
H1699       H  0.32219285  0.07969776  0.68871159     0.07200
Br1700     Br  0.33496679  0.01154704  0.67558370    -0.03400
C1701       C  0.34528438  0.88945042  0.72654958    -0.10100
C1702       C  0.35789488  0.86095654  0.71137743     0.06100
C1703       C  0.38864888  0.86281078  0.69525422    -0.03800
C1704       C  0.40562764  0.89263702  0.69432522    -0.08300
C1705       C  0.39289012  0.92111216  0.70926897     0.05200
C1706       C  0.36252617  0.91914352  0.72604692    -0.03300
Br1707     Br  0.34446613  0.95480361  0.75148167    -0.03000
H1708       H  0.32236141  0.88839306  0.74010084     0.09100
H1709       H  0.42885865  0.89361682  0.68131926     0.07200
Br1710     Br  0.40866833  0.82625106  0.67281756    -0.03400
C1711       C  0.26049448  0.00830795  0.97846854    -0.10100
C1712       C  0.24511790  0.98121354  0.96385888     0.06100
C1713       C  0.23554998  0.95449815  0.98365778    -0.03800
C1714       C  0.24321171  0.95470610  0.01705611    -0.08300
C1715       C  0.25944175  0.98156216  0.03151868     0.05200
C1716       C  0.26748474  0.00897848  0.01175772    -0.03300
Br1717     Br  0.28887948  0.04832342  0.02674476    -0.03000
H1718       H  0.26810211  0.02909431  0.96374858     0.09100
H1719       H  0.23572317  0.93396384  0.03189326     0.07200
Br1720     Br  0.21022474  0.91808835  0.96749714    -0.03400
C1721       C  0.27351254  0.03967690  0.83216501    -0.10100
C1722       C  0.25442634  0.04118440  0.86096182     0.06100
C1723       C  0.24443581  0.07222955  0.87318731    -0.03800
C1724       C  0.25408972  0.10073046  0.85679914    -0.08300
C1725       C  0.27303221  0.09894372  0.82804655     0.05200
C1726       C  0.28266042  0.06809435  0.81562482    -0.03300
Br1727     Br  0.30948270  0.06319039  0.77700709    -0.03000
H1728       H  0.28205826  0.01628222  0.82265305     0.09100
H1729       H  0.24576713  0.12440269  0.86590332     0.07200
Br1730     Br  0.21606064  0.07781431  0.91064227    -0.03400
C1731       C  0.25645376  0.89195898  0.87853970    -0.10100
C1732       C  0.25185388  0.92082094  0.86006051     0.06100
C1733       C  0.25376028  0.91886469  0.82540923    -0.03800
C1734       C  0.26167157  0.88914761  0.81053907    -0.08300
C1735       C  0.26634994  0.86036038  0.82892310     0.05200
C1736       C  0.26317684  0.86186265  0.86342669    -0.03300
Br1737     Br  0.26569522  0.82411208  0.89163465    -0.03000
H1738       H  0.25474986  0.89254746  0.90508733     0.09100
H1739       H  0.26363262  0.88863757  0.78398287     0.07200
Br1740     Br  0.24452620  0.95438557  0.79566902    -0.03400
C1741       C  0.55289631  0.95337213  0.30024646    -0.10100
C1742       C  0.56982191  0.97973160  0.31475917     0.06100
C1743       C  0.55142785  0.00581799  0.32871604    -0.03800
C1744       C  0.51707096  0.00467535  0.32833852    -0.08300
C1745       C  0.50020447  0.97833832  0.31369081     0.05200
C1746       C  0.51861004  0.95265840  0.29910381    -0.03300
Br1747     Br  0.49915493  0.91760808  0.27407414    -0.03000
H1748       H  0.56643780  0.93367020  0.28841591     0.09100
H1749       H  0.50343841  0.02468426  0.33953192     0.07200
Br1750     Br  0.57111424  0.04352948  0.34927211    -0.03400
C1751       C  0.66058891  0.06173513  0.28202478    -0.10100
C1752       C  0.67467611  0.03851372  0.30318470     0.06100
C1753       C  0.70536095  0.04557256  0.31762273    -0.03800
C1754       C  0.72133549  0.07523909  0.31042351    -0.08300
C1755       C  0.70723152  0.09848079  0.28912759     0.05200
C1756       C  0.67652622  0.09123292  0.27468506    -0.03300
Br1757     Br  0.65600222  0.11895182  0.24259268    -0.03000
H1758       H  0.63730084  0.05650489  0.27028824     0.09100
H1759       H  0.74477949  0.08034740  0.32188708     0.07200
Br1760     Br  0.72566286  0.01679017  0.34888127    -0.03400
C1761       C  0.70793490  0.91763474  0.30308279    -0.10100
C1762       C  0.67376034  0.91696590  0.30802142     0.06100
C1763       C  0.65809908  0.88578725  0.30885454    -0.03800
C1764       C  0.67635903  0.85706198  0.30319938    -0.08300
C1765       C  0.71031347  0.85793162  0.29682056     0.05200
C1766       C  0.72620042  0.88900252  0.29764575    -0.03300
Br1767     Br  0.77257788  0.89580564  0.29109883    -0.03000
H1768       H  0.72088789  0.94085537  0.30285164     0.09100
H1769       H  0.66354931  0.83375680  0.30342523     0.07200
Br1770     Br  0.61210252  0.87921060  0.31740716    -0.03400
C1771       C  0.85099425  0.99604738  0.02274653    -0.10100
C1772       C  0.83358131  0.97163684  0.03969828     0.06100
C1773       C  0.81495101  0.94843585  0.02196148    -0.03800
C1774       C  0.81344194  0.95061582  0.98802568    -0.08300
C1775       C  0.82956777  0.97585408  0.97102548     0.05200
C1776       C  0.84912298  0.99839001  0.98857185    -0.03300
Br1777     Br  0.87427737  0.03220822  0.96758901    -0.03000
H1778       H  0.86556457  0.01378514  0.03622064     0.09100
H1779       H  0.79803081  0.93324951  0.97499532     0.07200
Br1780     Br  0.78748540  0.91557676  0.04199855    -0.03400
C1781       C  0.79327533  0.03616863  0.16750283    -0.10100
C1782       C  0.81244189  0.03634108  0.13869748     0.06100
C1783       C  0.82289361  0.06687391  0.12568471    -0.03800
C1784       C  0.81487635  0.09591553  0.14215265    -0.08300
C1785       C  0.79672514  0.09530466  0.17136726     0.05200
C1786       C  0.78525178  0.06525450  0.18371275    -0.03300
Br1787     Br  0.75701287  0.06261516  0.22145801    -0.03000
H1788       H  0.78401277  0.01331192  0.17742061     0.09100
H1789       H  0.82385093  0.11910436  0.13268074     0.07200
Br1790     Br  0.84942164  0.07162744  0.08683264    -0.03400
C1791       C  0.84018022  0.89297175  0.14579578    -0.10100
C1792       C  0.81507940  0.91629828  0.14277167     0.06100
C1793       C  0.78298385  0.90886833  0.15336415    -0.03800
C1794       C  0.77672421  0.87864161  0.16801708    -0.08300
C1795       C  0.80205336  0.85578137  0.17180300     0.05200
C1796       C  0.83388419  0.86276029  0.16045046    -0.03300
Br1797     Br  0.86923232  0.83173589  0.16449130    -0.03000
H1798       H  0.86467309  0.89834153  0.13683501     0.09100
H1799       H  0.75218753  0.87306004  0.17673971     0.07200
Br1800     Br  0.74662858  0.93816871  0.14665682    -0.03400
C1801       C  0.74712580  0.46036750  0.01915602    -0.10100
C1802       C  0.72212076  0.44380603  0.00220134     0.06100
C1803       C  0.69772069  0.46227584  0.98608710    -0.03800
C1804       C  0.69940132  0.49668178  0.98606257    -0.08300
C1805       C  0.72469206  0.51317357  0.00264980     0.05200
C1806       C  0.74860048  0.49470532  0.01952480    -0.03300
Br1807     Br  0.78516617  0.51489278  0.04138969    -0.03000
H1808       H  0.76619482  0.44649583  0.03142149     0.09100
H1809       H  0.68051945  0.51065291  0.97359092     0.07200
Br1810     Br  0.66034061  0.44195056  0.96607855    -0.03400
C1811       C  0.72454116  0.30593786  0.06166478    -0.10100
C1812       C  0.73580720  0.33856817  0.05982565     0.06100
C1813       C  0.75224079  0.35204997  0.08727263    -0.03800
C1814       C  0.75680448  0.33316033  0.11549321    -0.08300
C1815       C  0.74553050  0.30060267  0.11749878     0.05200
C1816       C  0.72903705  0.28701080  0.09008645    -0.03300
Br1817     Br  0.71034459  0.24368796  0.09024930    -0.03000
H1818       H  0.71171077  0.29516591  0.04097591     0.09100
H1819       H  0.77007795  0.34395223  0.13589297     0.07200
Br1820     Br  0.77149086  0.39512121  0.08760673    -0.03400
C1821       C  0.75522637  0.31206348  0.93964924    -0.10100
C1822       C  0.73566201  0.34057691  0.93905671     0.06100
C1823       C  0.72310575  0.35112263  0.90843644    -0.03800
C1824       C  0.73007646  0.33317126  0.87975536    -0.08300
C1825       C  0.74930422  0.30448623  0.88057055     0.05200
C1826       C  0.76224633  0.29422026  0.91108140    -0.03300
Br1827     Br  0.79161708  0.25751379  0.91581871    -0.03000
H1828       H  0.76588922  0.30376531  0.96253508     0.09100
H1829       H  0.71987938  0.34146487  0.85664977     0.07200
Br1830     Br  0.69491186  0.38853390  0.90358795    -0.03400
C1831       C  0.01931752  0.20181285  0.97852308    -0.10100
C1832       C  0.00328895  0.22384515  0.99971879     0.06100
C1833       C  0.02153483  0.24443771  0.02063387    -0.03800
C1834       C  0.05560247  0.24243056  0.02020772    -0.08300
C1835       C  0.07152744  0.22030575  0.99907509     0.05200
C1836       C  0.05333360  0.19974542  0.97818213    -0.03300
Br1837     Br  0.07340252  0.16679098  0.95072057    -0.03000
H1838       H  0.00527835  0.18554304  0.96278725     0.09100
H1839       H  0.06973683  0.25845369  0.03610492     0.07200
Br1840     Br  0.00155491  0.27682169  0.04877227    -0.03400
C1841       C  0.91524652  0.21054200  0.08786936    -0.10100
C1842       C  0.89938156  0.22214026  0.05949365     0.06100
C1843       C  0.86693012  0.23432811  0.06192828    -0.03800
C1844       C  0.85116604  0.23433142  0.09222922    -0.08300
C1845       C  0.86704039  0.22277752  0.12039708     0.05200
C1846       C  0.89937611  0.21081526  0.11824545    -0.03300
Br1847     Br  0.92223537  0.19281962  0.15532932    -0.03000
H1848       H  0.94000835  0.20083204  0.08642561     0.09100
H1849       H  0.82635396  0.24394254  0.09392655     0.07200
Br1850     Br  0.84277409  0.25319283  0.02600162    -0.03400
C1851       C  0.86335166  0.19655510  0.90098894    -0.10100
C1852       C  0.86863774  0.22274350  0.87925666     0.06100
C1853       C  0.88959191  0.24874359  0.88831388    -0.03800
C1854       C  0.90623428  0.24723189  0.91807301    -0.08300
C1855       C  0.90096279  0.22100755  0.93958392     0.05200
C1856       C  0.87897254  0.19579742  0.93131282    -0.03300
Br1857     Br  0.86999569  0.15963200  0.96014667    -0.03000
H1858       H  0.84679686  0.17675299  0.89446349     0.09100
H1859       H  0.92241123  0.26719575  0.92504423     0.07200
Br1860     Br  0.89356232  0.28843462  0.86313246    -0.03400
C1861       C  0.35602741  0.50290745  0.02005918    -0.10100
C1862       C  0.33596858  0.51881988  0.99699458     0.06100
C1863       C  0.31678063  0.49966981  0.97545786    -0.03800
C1864       C  0.31827136  0.46534362  0.97707674    -0.08300
C1865       C  0.33842913  0.44934536  0.00005250     0.05200
C1866       C  0.35750516  0.46856335  0.02170120    -0.03300
Br1867     Br  0.38722605  0.44960530  0.05290824    -0.03000
H1868       H  0.37087837  0.51732553  0.03680556     0.09100
H1869       H  0.30274037  0.45106642  0.96088983     0.07200
Br1870     Br  0.28593721  0.51879202  0.94541428    -0.03400
C1871       C  0.34759130  0.61381087  0.08540629    -0.10100
C1872       C  0.32575159  0.62108858  0.05975452     0.06100
C1873       C  0.30036174  0.64395896  0.06531799    -0.03800
C1874       C  0.29827943  0.66049176  0.09534296    -0.08300
C1875       C  0.32043677  0.65380794  0.12082384     0.05200
C1876       C  0.34501886  0.62982830  0.11589360    -0.03300
Br1877     Br  0.37654470  0.61925441  0.14919787    -0.03000
H1878       H  0.36695990  0.59589399  0.08157548     0.09100
H1879       H  0.27848107  0.67793813  0.09921969     0.07200
Br1880     Br  0.26564644  0.65073824  0.03445830    -0.03400
C1881       C  0.32422515  0.67476253  0.90606363    -0.10100
C1882       C  0.33037084  0.65781516  0.87646786     0.06100
C1883       C  0.34188464  0.62510681  0.87839722    -0.03800
C1884       C  0.34329103  0.60924560  0.90895995    -0.08300
C1885       C  0.33478936  0.62554992  0.93845990     0.05200
C1886       C  0.32686949  0.65948547  0.93663504    -0.03300
Br1887     Br  0.31884161  0.68770504  0.97380990    -0.03000
H1888       H  0.31640839  0.70021895  0.90564585     0.09100
H1889       H  0.35121614  0.58383556  0.90950586     0.07200
Br1890     Br  0.35783080  0.60112332  0.84083788    -0.03400
C1891       C  0.05539250  0.74546814  0.02510881    -0.10100
C1892       C  0.06962955  0.72623041  0.00013009     0.06100
C1893       C  0.04944922  0.71101989  0.97656015    -0.03800
C1894       C  0.01574601  0.71622312  0.97766430    -0.08300
C1895       C  0.00149151  0.73572170  0.00233841     0.05200
C1896       C  0.02157023  0.75023686  0.02653834    -0.03300
Br1897     Br  0.00501334  0.77802069  0.06117428    -0.03000
H1898       H  0.07068828  0.75737412  0.04335702     0.09100
H1899       H  0.00050655  0.70408198  0.95960544     0.07200
Br1900     Br  0.06565769  0.68081423  0.94391356    -0.03400
C1901       C  0.15531504  0.72398678  0.08790417    -0.10100
C1902       C  0.17364946  0.72592050  0.05865054     0.06100
C1903       C  0.20789502  0.73137632  0.06048890    -0.03800
C1904       C  0.22287226  0.73279430  0.09101305    -0.08300
C1905       C  0.20453806  0.73071024  0.12019695     0.05200
C1906       C  0.17011239  0.72719551  0.11841284    -0.03300
Br1907     Br  0.14088574  0.72888073  0.15565627    -0.03000
H1908       H  0.12893374  0.72067483  0.08730115     0.09100
H1909       H  0.24926498  0.73606932  0.09171166     0.07200
Br1910     Br  0.23639620  0.73970927  0.02366219    -0.03400
C1911       C  0.21946003  0.71176099  0.90409808    -0.10100
C1912       C  0.20660391  0.73242875  0.87998397     0.06100
C1913       C  0.17685398  0.74907548  0.88519123    -0.03800
C1914       C  0.15998969  0.74443244  0.91453707    -0.08300
C1915       C  0.17255402  0.72336532  0.93868724     0.05200
C1916       C  0.20249403  0.70676845  0.93326043    -0.03300
Br1917     Br  0.22010422  0.67484355  0.96291962    -0.03000
H1918       H  0.24219183  0.69850146  0.89966644     0.09100
H1919       H  0.13734525  0.75785464  0.91875569     0.07200
Br1920     Br  0.15936560  0.77954396  0.85385282    -0.03400
loop_ 
_geom_bond_atom_site_label_1 
_geom_bond_atom_site_label_2 
_geom_bond_distance 
_geom_bond_site_symmetry_2 
_ccdc_geom_bond_type 
C1            N2   1.353       .  A
C1            N6   1.351       .  A
C1         C1915   1.457       .  S
N2            C3   1.352       .  A
C3            N4   1.350   1_556  A
C3         C1892   1.462   1_556  S
N4            C5   1.353       .  A
C5            N6   1.350   1_554  A
C5         C1902   1.471       .  S
C7            N8   1.354       .  A
C7           N12   1.359   1_554  A
C7         C1872   1.475       .  S
N8            C9   1.356   1_554  A
C9           N10   1.362       .  A
C9         C1862   1.479       .  S
N10          C11   1.364       .  A
C11          N12   1.360       .  A
C11        C1885   1.501       .  S
C13          N14   1.353   1_554  A
C13          N18   1.354       .  A
C13        C1842   1.468       .  S
N14          C15   1.351       .  A
C15          N16   1.349       .  A
C15        C1855   1.450       .  S
N16          C17   1.351       .  A
C17          N18   1.353   1_556  A
C17        C1832   1.451   1_655  S
C19          N20   1.362       .  A
C19          N24   1.361       .  A
C19        C1822   1.492       .  S
N20          C21   1.361   1_556  A
C21          N22   1.359       .  A
C21        C1802   1.478       .  S
N22          C23   1.358       .  A
C23          N24   1.358   1_554  A
C23        C1812   1.487       .  S
C25          N26   1.349       .  A
C25          N30   1.354       .  A
C25        C1792   1.454       .  S
N26          C27   1.351       .  A
C27          N28   1.354   1_565  A
C27        C1772   1.462       .  S
N28          C29   1.354       .  A
C29          N30   1.359   1_545  A
C29        C1782   1.477       .  S
C31          N32   1.360   1_545  A
C31          N36   1.357       .  A
C31        C1752   1.483       .  S
N32          C33   1.364       .  A
C33          N34   1.357       .  A
C33        C1762   1.499       .  S
N34          C35   1.359       .  A
C35          N36   1.356   1_565  A
C35        C1742   1.484       .  S
C37          N38   1.350       .  A
C37          N42   1.354   1_545  A
C37        C1722   1.475       .  S
N38          C39   1.355   1_545  A
C39          N40   1.353       .  A
C39        C1712   1.470       .  S
N40          C41   1.355       .  A
C41          N42   1.353       .  A
C41        C1732   1.479       .  S
C43          N44   1.357       .  A
C43          N48   1.360       .  A
C43        C1705   1.482       .  S
N44          C45   1.356   1_565  A
C45          N46   1.358       .  A
C45        C1692   1.481       .  S
N46          C47   1.356   1_545  A
C47          N48   1.358       .  A
C47        C1682   1.488       .  S
C49          N50   1.351       .  A
C49          N54   1.352       .  A
C49        C1662   1.452       .  S
N50          C51   1.351       .  A
C51          N52   1.355   1_554  A
C51        C1895   1.462   1_655  S
N52          C53   1.353       .  A
C53          N54   1.353   1_556  A
C53        C1675   1.462       .  S
C55          N56   1.360       .  A
C55          N60   1.357       .  A
C55        C1642   1.497       .  S
N56          C57   1.358       .  A
C57          N58   1.360   1_554  A
C57        C1805   1.475       .  S
N58          C59   1.359       .  A
C59          N60   1.361   1_556  A
C59        C1655   1.487       .  S
C61          N62   1.353       .  A
C61          N66   1.351   1_556  A
C61        C1632   1.460       .  S
N62          C63   1.350       .  A
C63          N64   1.348   1_556  A
C63        C1835   1.447       .  S
N64          C65   1.349       .  A
C65          N66   1.350       .  A
C65        C1622   1.441       .  S
C67          N68   1.363   1_556  A
C67          N72   1.357       .  A
C67        C1612   1.498       .  S
N68          C69   1.362       .  A
C69          N70   1.360       .  A
C69        C1602   1.490       .  S
N70          C71   1.358       .  A
C71          N72   1.357   1_554  A
C71        C1865   1.483       .  S
C73          N74   1.346       .  A
C73          N78   1.355       .  A
C73        C1592   1.475       .  S
N74          C75   1.351       .  A
C75          N76   1.358   1_565  A
C75        C1775   1.468       .  S
N76          C77   1.359       .  A
C77          N78   1.361   1_545  A
C77        C1582   1.485       .  S
C79          N80   1.363       .  A
C79          N84   1.361   1_545  A
C79        C1562   1.493       .  S
N80          C81   1.362   1_545  A
C81          N82   1.357       .  A
C81        C1685   1.485       .  S
N82          C83   1.356       .  A
C83          N84   1.358       .  A
C83        C1575   1.488       .  S
C85          N86   1.350   1_545  A
C85          N90   1.347       .  A
C85        C1542   1.450       .  S
N86          C87   1.353       .  A
C87          N88   1.359       .  A
C87        C1552   1.471       .  S
N88          C89   1.360       .  A
C89          N90   1.351   1_565  A
C89        C1715   1.474       .  S
C91          N92   1.362       .  A
C91          N96   1.357       .  A
C91        C1532   1.494       .  S
N92          C93   1.362   1_565  A
C93          N94   1.357       .  A
C93        C1522   1.485       .  S
N94          C95   1.359   1_545  A
C95          N96   1.359       .  A
C95        C1745   1.483       .  S
C97          N98   1.351       .  A
C97         N102   1.355       .  A
C97        C1515   1.466   1_455  S
N98          C99   1.349       .  A
C99         N100   1.352       .  A
C99        C1492   1.456       .  S
N100        C101   1.352       .  A
C101        N102   1.356       .  A
C101       C1502   1.458       .  S
C103        N104   1.361       .  A
C103        N108   1.356       .  A
C103       C1482   1.491   1_455  S
N104        C105   1.363       .  A
C105        N106   1.365       .  A
C105       C1472   1.501       .  S
N106        C107   1.363       .  A
C107        N108   1.359       .  A
C107       C1465   1.491       .  S
C109        N110   1.351       .  A
C109        N114   1.354       .  A
C109       C1442   1.472       .  S
N110        C111   1.346       .  A
C111        N112   1.351       .  A
C111       C1495   1.453       .  S
N112        C113   1.354       .  A
C113        N114   1.356       .  A
C113       C1455   1.462   1_455  S
C115        N116   1.361       .  A
C115        N120   1.357       .  A
C115       C1432   1.488   1_455  S
N116        C117   1.360       .  A
C117        N118   1.362       .  A
C117       C1412   1.501       .  S
N118        C119   1.362       .  A
C119        N120   1.357       .  A
C119       C1425   1.490       .  S
C121        N122   1.355       .  A
C121        N126   1.351       .  A
C121       C1405   1.457       .  S
N122        C123   1.358       .  A
C123        N124   1.352       .  A
C123       C1385   1.461       .  S
N124        C125   1.352       .  A
C125        N126   1.352       .  A
C125       C1395   1.456   1_455  S
C127        N128   1.359       .  A
C127        N132   1.361       .  A
C127       C1375   1.492       .  S
N128        C129   1.362       .  A
C129        N130   1.360       .  A
C129       C1362   1.499   1_455  S
N130        C131   1.364       .  A
C131        N132   1.362       .  A
C131       C1415   1.503       .  S
C133        N134   1.351       .  A
C133        N138   1.353       .  A
C133       C1355   1.450   1_455  S
N134        C135   1.348       .  A
C135        N136   1.353       .  A
C135       C1382   1.458       .  S
N136        C137   1.354       .  A
C137        N138   1.354       .  A
C137       C1342   1.460       .  S
C139        N140   1.360       .  A
C139        N144   1.363       .  A
C139       C1322   1.492       .  S
N140        C141   1.359       .  A
C141        N142   1.359       .  A
C141       C1335   1.487   1_455  S
N142        C143   1.359       .  A
C143        N144   1.361       .  A
C143       C1462   1.491       .  S
C145        N146   1.359       .  A
C145        N150   1.354       .  A
C145       C1302   1.480       .  S
N146        C147   1.355       .  A
C147        N148   1.350       .  A
C147       C1315   1.458       .  S
N148        C149   1.348       .  A
C149        N150   1.353       .  A
C149       C1292   1.451       .  S
C151        N152   1.357       .  A
C151        N156   1.359       .  A
C151       C1282   1.486       .  S
N152        C153   1.359       .  A
C153        N154   1.363       .  A
C153       C1272   1.496       .  S
N154        C155   1.362       .  A
C155        N156   1.360       .  A
C155       C1265   1.491       .  S
O157       Zr193   2.409       .  S
O157        C168   1.288       .  A
O158       Zr192   2.462       .  S
O158        C169   1.296       .  A
O159       Zr165   2.441       .  S
O159        C170   1.291       .  A
O160       Zr165   2.441       .  S
O160        C171   1.293       .  A
O161       Zr195   2.407       .  S
O161        C171   1.286       .  A
O162       Zr194   2.442       .  S
O162        C170   1.294       .  A
O163       Zr165   2.427       .  S
O163        C169   1.290       .  A
O164       Zr165   2.406       .  S
O164        C168   1.285       .  A
Zr165       O166   2.329       .  S
Zr165       O167   2.340       .  S
Zr165       O175   2.341       .  S
Zr165       O173   2.330       .  S
O166       Zr192   2.327       .  S
O166       Zr195   2.338       .  S
O167       Zr193   2.337       .  S
O167       Zr194   2.321       .  S
C168       C1905   1.467       .  S
C169       C1372   1.487       .  S
C170       C1275   1.493       .  S
C171       C1402   1.467       .  S
H172        O173   0.966       .  S
O173       Zr192   2.330       .  S
O173       Zr194   2.345       .  S
H174        O175   0.966       .  S
O175       Zr193   2.350       .  S
O175       Zr195   2.336       .  S
O176       Zr192   2.411       .  S
O176        C199   1.289       .  A
O177       Zr193   2.466       .  S
O177        C200   1.296       .  A
O178       Zr194   2.411       .  S
O178        C201   1.285       .  A
O179       Zr195   2.443       .  S
O179        C202   1.293       .  A
O180       Zr195   2.441       .  S
O180        C203   1.293       .  A
O181       Zr194   2.445       .  S
O181        C204   1.292       .  A
O182       Zr196   2.419       .  S
O182        C205   1.289       .  A
O183       Zr196   2.470       .  S
O183        C206   1.298       .  A
O184       Zr194   2.427       .  S
O184        C205   1.290       .  A
O185       Zr195   2.424       .  S
O185        C206   1.287       .  A
O186       Zr192   2.448       .  S
O186        C201   1.296       .  A
O187       Zr193   2.429       .  S
O187        C204   1.290       .  A
O188       Zr193   2.413       .  S
O188        C203   1.287       .  A
O189       Zr192   2.447       .  S
O189        C202   1.294       .  A
O190       Zr196   2.421       .  S
O190        C199   1.289       .  A
O191       Zr196   2.430       .  S
O191        C200   1.292       .  A
Zr192       O198   2.341       .  S
Zr192       O210   2.354       .  S
Zr193       O197   2.339       .  S
Zr193       O208   2.323       .  S
Zr194       O198   2.338       .  S
Zr194       O208   2.338       .  S
Zr195       O197   2.337       .  S
Zr195       O210   2.329       .  S
Zr196       O197   2.327       .  S
Zr196       O198   2.348       .  S
Zr196       O210   2.333       .  S
Zr196       O208   2.348       .  S
C199       C1242   1.456       .  S
C200       C1235   1.501       .  S
C201       C1305   1.488       .  S
C202       C1252   1.487       .  S
C203       C1555   1.458       .  S
C204       C1875   1.476       .  S
C205       C1222   1.456       .  S
C206       C1535   1.497       .  S
H207        O208   0.966       .  S
H209        O210   0.966       .  S
C211        N212   1.359       .  A
C211        N216   1.355       .  A
C211       C1215   1.479       .  S
N212        C213   1.355       .  A
C213        N214   1.352       .  A
C213       C1202   1.473       .  S
N214        C215   1.351       .  A
C215        N216   1.355       .  A
C215       C1192   1.463       .  S
C217        N218   1.364       .  A
C217        N222   1.358       .  A
C217       C1185   1.489       .  S
N218        C219   1.366       .  A
C219        N220   1.359       .  A
C219       C1175   1.497       .  S
N220        C221   1.358       .  A
C221        N222   1.356       .  A
C221       C1162   1.483       .  S
O223       Zr259   2.415       .  S
O223        C234   1.288       .  A
O224       Zr258   2.443       .  S
O224        C235   1.294       .  A
O225       Zr231   2.456       .  S
O225        C236   1.294       .  A
O226       Zr231   2.400       .  S
O226        C237   1.286       .  A
O227       Zr261   2.418       .  S
O227        C237   1.289       .  A
O228       Zr260   2.434       .  S
O228        C236   1.292       .  A
O229       Zr231   2.445       .  S
O229        C235   1.291       .  A
O230       Zr231   2.442       .  S
O230        C234   1.293       .  A
Zr231       O232   2.347       .  S
Zr231       O233   2.335       .  S
Zr231       O241   2.346       .  S
Zr231       O239   2.328       .  S
O232       Zr258   2.324       .  S
O232       Zr261   2.339       .  S
O233       Zr259   2.342       .  S
O233       Zr260   2.326       .  S
C234       C1725   1.464       .  S
C235       C1615   1.500       .  S
C236       C1135   1.498       .  S
C237       C1635   1.448       .  S
H238        O239   0.966       .  S
O239       Zr258   2.338       .  S
O239       Zr260   2.339       .  S
H240        O241   0.965       .  S
O241       Zr259   2.338       .  S
O241       Zr261   2.338       .  S
O242       Zr258   2.411       .  S
O242        C265   1.287       .  A
O243       Zr259   2.451       .  S
O243        C266   1.296       .  A
O244       Zr260   2.402       .  S
O244        C267   1.285       .  A
O245       Zr261   2.445       .  S
O245        C268   1.294       .  A
O246       Zr261   2.424       .  S
O246        C269   1.289       .  A
O247       Zr260   2.427       .  S
O247        C270   1.288       .  A
O248       Zr262   2.417       .  S
O248        C271   1.290       .  A
O249       Zr262   2.461       .  S
O249        C272   1.295       .  A
O250       Zr260   2.422       .  S
O250        C271   1.289       .  A
O251       Zr261   2.436       .  S
O251        C272   1.293       .  A
O252       Zr258   2.428       .  S
O252        C267   1.290       .  A
O253       Zr259   2.421       .  S
O253        C270   1.290       .  A
O254       Zr259   2.411       .  S
O254        C269   1.286       .  A
O255       Zr258   2.437       .  S
O255        C268   1.291       .  A
O256       Zr262   2.419       .  S
O256        C265   1.289       .  A
O257       Zr262   2.440       .  S
O257        C266   1.291       .  A
Zr258       O264   2.338       .  S
Zr258       O276   2.343       .  S
Zr259       O263   2.336       .  S
Zr259       O274   2.319       .  S
Zr260       O264   2.337       .  S
Zr260       O274   2.332       .  S
Zr261       O263   2.339       .  S
Zr261       O276   2.319       .  S
Zr262       O263   2.325       .  S
Zr262       O264   2.344       .  S
Zr262       O276   2.332       .  S
Zr262       O274   2.340       .  S
C265       C1142   1.451       .  S
C266       C1172   1.496       .  S
C267       C1122   1.451       .  S
C268       C1152   1.485       .  S
C269       C1505   1.447       .  S
C270       C1695   1.480       .  S
C271       C1205   1.462       .  S
C272       C1475   1.500       .  S
H273        O274   0.965       .  S
H275        O276   0.965       .  S
C277        N278   1.353       .  A
C277        N282   1.347       .  A
C277       C1245   1.472       .  S
N278        C279   1.355       .  A
C279        N280   1.352       .  A
C279       C1102   1.455       .  S
N280        C281   1.350       .  A
C281        N282   1.350       .  A
C281       C1112   1.450       .  S
C283        N284   1.357       .  A
C283        N288   1.361       .  A
C283       C1092   1.480       .  S
N284        C285   1.358       .  A
C285        N286   1.359       .  A
C285       C1165   1.481       .  S
N286        C287   1.361       .  A
C287        N288   1.361       .  A
C287       C1255   1.487       .  S
C289        N290   1.352       .  A
C289        N294   1.353       .  A
C289       C1082   1.453       .  S
N290        C291   1.354       .  A
C291        N292   1.350       .  A
C291       C1295   1.451       .  S
N292        C293   1.352       .  A
C293        N294   1.353       .  A
C293       C1145   1.460       .  S
C295        N296   1.364       .  A
C295        N300   1.355       .  A
C295       C1155   1.484       .  S
N296        C297   1.365       .  A
C297        N298   1.357       .  A
C297       C1072   1.495       .  S
N298        C299   1.356       .  A
C299        N300   1.353       .  A
C299       C1065   1.478       .  S
O301       Zr337   2.406       .  S
O301        C312   1.286       .  A
O302       Zr336   2.453       .  S
O302        C313   1.294       .  A
O303       Zr309   2.405       .  S
O303        C314   1.287       .  A
O304       Zr309   2.445       .  S
O304        C315   1.295       .  A
O305       Zr339   2.424       .  S
O305        C315   1.288       .  A
O306       Zr338   2.418       .  S
O306        C314   1.287       .  A
O307       Zr309   2.427       .  S
O307        C313   1.291       .  A
O308       Zr309   2.416       .  S
O308        C312   1.288       .  A
Zr309       O310   2.318       .  S
Zr309       O311   2.333       .  S
Zr309       O319   2.333       .  S
Zr309       O317   2.344       .  S
O310       Zr336   2.334       .  S
O310       Zr339   2.344       .  S
O311       Zr337   2.329       .  S
O311       Zr338   2.337       .  S
C312       C1912   1.445       .  S
C313       C1422   1.487       .  S
C314       C1445   1.471       .  S
C315       C1075   1.491       .  S
H316        O317   0.965       .  S
O317       Zr336   2.314       .  S
O317       Zr338   2.334       .  S
H318        O319   0.966       .  S
O319       Zr337   2.344       .  S
O319       Zr339   2.330       .  S
O320       Zr336   2.397       .  S
O320        C343   1.283       .  A
O321       Zr337   2.425       .  S
O321        C344   1.289       .  A
O322       Zr338   2.447       .  S
O322        C345   1.293       .  A
O323       Zr339   2.426       .  S
O323        C346   1.290       .  A
O324       Zr339   2.460       .  S
O324        C347   1.295       .  A
O325       Zr338   2.400       .  S
O325        C348   1.287       .  A
O326       Zr340   2.436       .  S
O326        C349   1.291       .  A
O327       Zr340   2.420       .  S
O327        C350   1.290       .  A
O328       Zr338   2.444       .  S
O328        C349   1.294       .  A
O329       Zr339   2.428       .  S
O329        C350   1.290       .  A
O330       Zr336   2.441       .  S
O330        C345   1.292       .  A
O331       Zr337   2.433       .  S
O331        C348   1.290       .  A
O332       Zr337   2.423       .  S
O332        C347   1.290       .  A
O333       Zr336   2.424       .  S
O333        C346   1.289       .  A
O334       Zr340   2.413       .  S
O334        C343   1.289       .  A
O335       Zr340   2.438       .  S
O335        C344   1.293       .  A
Zr336       O342   2.339       .  S
Zr336       O354   2.344       .  S
Zr337       O341   2.332       .  S
Zr337       O352   2.328       .  S
Zr338       O342   2.316       .  S
Zr338       O352   2.341       .  S
Zr339       O341   2.337       .  S
Zr339       O354   2.337       .  S
Zr340       O341   2.333       .  S
Zr340       O342   2.339       .  S
Zr340       O354   2.339       .  S
Zr340       O352   2.325       .  S
C343       C1115   1.465       .  S
C344       C1055   1.477       .  S
C345       C1095   1.482       .  S
C346       C1085   1.451       .  S
C347       C1882   1.495       .  S
C348       C1735   1.475       .  S
C349       C1702   1.485       .  S
C350       C1042   1.471       .  S
H351        O352   0.965       .  S
H353        O354   0.965       .  S
C355        N356   1.353       .  A
C355        N360   1.358       .  A
C355       C1032   1.472       .  S
N356        C357   1.352       .  A
C357        N358   1.353       .  A
C357       C1012   1.468       .  S
N358        C359   1.353       .  A
C359        N360   1.357       .  A
C359       C1022   1.459       .  S
C361        N362   1.360       .  A
C361        N366   1.359       .  A
C361        C992   1.488       .  S
N362        C363   1.360       .  A
C363        N364   1.362       .  A
C363       C1262   1.493       .  S
N364        C365   1.363       .  A
C365        N366   1.359       .  A
C365       C1002   1.497       .  S
C367        N368   1.354       .  A
C367        N372   1.345       .  A
C367        C982   1.465       .  S
N368        C369   1.353       .  A
C369        N370   1.356       .  A
C369       C1225   1.463       .  S
N370        C371   1.353       .  A
C371        N372   1.347       .  A
C371        C972   1.453       .  S
C373        N374   1.358       .  A
C373        N378   1.363       .  A
C373        C962   1.494       .  S
N374        C375   1.358       .  A
C375        N376   1.358       .  A
C375        C952   1.490       .  S
N376        C377   1.359       .  A
C377        N378   1.362       .  A
C377       C1232   1.501       .  S
O379       Zr415   2.411       .  S
O379        C390   1.287       .  A
O380       Zr414   2.430       .  S
O380        C391   1.288       .  A
O381       Zr387   2.402       .  S
O381        C392   1.287       .  A
O382       Zr387   2.443       .  S
O382        C393   1.293       .  A
O383       Zr417   2.450       .  S
O383        C393   1.293       .  A
O384       Zr416   2.421       .  S
O384        C392   1.289       .  A
O385       Zr387   2.451       .  S
O385        C391   1.295       .  A
O386       Zr387   2.427       .  S
O386        C390   1.289       .  A
Zr387       O388   2.318       .  S
Zr387       O389   2.342       .  S
Zr387       O397   2.341       .  S
Zr387       O395   2.343       .  S
O388       Zr414   2.341       .  S
O388       Zr417   2.341       .  S
O389       Zr415   2.334       .  S
O389       Zr416   2.330       .  S
C390       C1795   1.447       .  S
C391       C1645   1.497       .  S
C392       C1665   1.458       .  S
C393        C965   1.494       .  S
H394        O395   0.966       .  S
O395       Zr414   2.323       .  S
O395       Zr416   2.336       .  S
H396        O397   0.966       .  S
O397       Zr415   2.342       .  S
O397       Zr417   2.323       .  S
O398       Zr414   2.420       .  S
O398        C421   1.289       .  A
O399       Zr415   2.440       .  S
O399        C422   1.293       .  A
O400       Zr416   2.431       .  S
O400        C423   1.290       .  A
O401       Zr417   2.403       .  S
O401        C424   1.286       .  A
O402       Zr417   2.458       .  S
O402        C425   1.296       .  A
O403       Zr416   2.419       .  S
O403        C426   1.288       .  A
O404       Zr418   2.469       .  S
O404        C427   1.298       .  A
O405       Zr418   2.409       .  S
O405        C428   1.288       .  A
O406       Zr416   2.424       .  S
O406        C427   1.287       .  A
O407       Zr417   2.430       .  S
O407        C428   1.291       .  A
O408       Zr414   2.448       .  S
O408        C423   1.294       .  A
O409       Zr415   2.415       .  S
O409        C426   1.289       .  A
O410       Zr415   2.420       .  S
O410        C425   1.286       .  A
O411       Zr414   2.419       .  S
O411        C424   1.290       .  A
O412       Zr418   2.427       .  S
O412        C421   1.290       .  A
O413       Zr418   2.428       .  S
O413        C422   1.290       .  A
Zr414       O420   2.335       .  S
Zr414       O432   2.337       .  S
Zr415       O419   2.320       .  S
Zr415       O430   2.332       .  S
Zr416       O420   2.327       .  S
Zr416       O430   2.335       .  S
Zr417       O419   2.333       .  S
Zr417       O432   2.354       .  S
Zr418       O419   2.347       .  S
Zr418       O420   2.332       .  S
Zr418       O432   2.344       .  S
Zr418       O430   2.321       .  S
C421       C1025   1.468       .  S
C422        C945   1.477       .  S
C423        C995   1.486       .  S
C424        C985   1.454       .  S
C425       C1765   1.498       .  S
C426       C1392   1.466       .  S
C427       C1365   1.498       .  S
C428        C935   1.458       .  S
H429        O430   0.965       .  S
H431        O432   0.965       .  S
C433        N434   1.353       .  A
C433        N438   1.357       .  A
C433        C922   1.465       .  S
N434        C435   1.352       .  A
C435        N436   1.349       .  A
C435       C1105   1.458       .  S
N436        C437   1.351       .  A
C437        N438   1.356       .  A
C437        C932   1.473       .  S
C439        N440   1.360       .  A
C439        N444   1.360       .  A
C439        C912   1.486       .  S
N440        C441   1.359       .  A
C441        N442   1.359       .  A
C441        C902   1.490       .  S
N442        C443   1.357       .  A
C443        N444   1.358       .  A
C443        C942   1.480       .  S
C445        N446   1.351       .  A
C445        N450   1.356       .  A
C445        C892   1.461       .  S
N446        C447   1.351       .  A
C447        N448   1.352       .  A
C447        C882   1.454       .  S
N448        C449   1.355       .  A
C449        N450   1.355       .  A
C449       C1045   1.484       .  S
C451        N452   1.356       .  A
C451        N456   1.361       .  A
C451       C1052   1.478       .  S
N452        C453   1.354       .  A
C453        N454   1.353       .  A
C453        C872   1.476       .  S
N454        C455   1.358       .  A
C455        N456   1.360       .  A
C455        C955   1.488       .  S
C457        N458   1.355       .  A
C457        N462   1.354       .  A
C457        C852   1.457       .  S
N458        C459   1.356       .  A
C459        N460   1.355       .  A
C459        C865   1.467       .  S
N460        C461   1.354       .  A
C461        N462   1.354       .  A
C461       C1015   1.468       .  S
C463        N464   1.360       .  A
C463        N468   1.365       .  A
C463        C842   1.494       .  S
N464        C465   1.358       .  A
C465        N466   1.355       .  A
C465       C1062   1.478       .  S
N466        C467   1.353       .  A
C467        N468   1.366       .  A
C467        C832   1.503       .  S
O469       Zr505   2.410       .  S
O469        C480   1.285       .  A
O470       Zr504   2.434       .  S
O470        C481   1.290       .  A
O471       Zr477   2.461       .  S
O471        C482   1.296       .  A
O472       Zr477   2.421       .  S
O472        C483   1.289       .  A
O473       Zr507   2.425       .  S
O473        C483   1.289       .  A
O474       Zr506   2.433       .  S
O474        C482   1.292       .  A
O475       Zr477   2.448       .  S
O475        C481   1.294       .  A
O476       Zr477   2.437       .  S
O476        C480   1.294       .  A
Zr477       O478   2.345       .  S
Zr477       O479   2.340       .  S
Zr477       O487   2.345       .  S
Zr477       O485   2.330       .  S
O478       Zr504   2.323       .  S
O478       Zr507   2.341       .  S
O479       Zr505   2.341       .  S
O479       Zr506   2.332       .  S
C480       C1672   1.476       .  S
C481       C1435   1.489       .  S
C482        C845   1.494       .  S
C483       C1452   1.455       .  S
H484        O485   0.966       .  S
O485       Zr504   2.334       .  S
O485       Zr506   2.346       .  S
H486        O487   0.965       .  S
O487       Zr505   2.342       .  S
O487       Zr507   2.347       .  S
O488       Zr504   2.409       .  S
O488        C511   1.288       .  A
O489       Zr505   2.434       .  S
O489        C512   1.290       .  A
O490       Zr506   2.425       .  S
O490        C513   1.291       .  A
O491       Zr507   2.456       .  S
O491        C514   1.294       .  A
O492       Zr507   2.422       .  S
O492        C515   1.289       .  A
O493       Zr506   2.453       .  S
O493        C516   1.295       .  A
O494       Zr508   2.412       .  S
O494        C517   1.289       .  A
O495       Zr508   2.454       .  S
O495        C518   1.295       .  A
O496       Zr506   2.436       .  S
O496        C517   1.291       .  A
O497       Zr507   2.438       .  S
O497        C518   1.292       .  A
O498       Zr504   2.425       .  S
O498        C513   1.288       .  A
O499       Zr505   2.443       .  S
O499        C516   1.292       .  A
O500       Zr505   2.430       .  S
O500        C515   1.291       .  A
O501       Zr504   2.433       .  S
O501        C514   1.292       .  A
O502       Zr508   2.434       .  S
O502        C511   1.290       .  A
O503       Zr508   2.437       .  S
O503        C512   1.293       .  A
Zr504       O510   2.328       .  S
Zr504       O522   2.339       .  S
Zr505       O509   2.342       .  S
Zr505       O520   2.329       .  S
Zr506       O510   2.334       .  S
Zr506       O520   2.337       .  S
Zr507       O509   2.346       .  S
Zr507       O522   2.329       .  S
Zr508       O509   2.329       .  S
Zr508       O510   2.332       .  S
Zr508       O522   2.336       .  S
Zr508       O520   2.347       .  S
C511        C925   1.479       .  S
C512        C875   1.481       .  S
C513        C862   1.478       .  S
C514        C915   1.486       .  S
C515       C1595   1.459       .  S
C516       C1652   1.492       .  S
C517        C895   1.475       .  S
C518       C1572   1.493       .  S
H519        O520   0.965       .  S
H521        O522   0.966       .  S
C523        N524   1.352       .  A
C523        N528   1.354       .  A
C523        C812   1.463       .  S
N524        C525   1.350       .  A
C525        N526   1.354       .  A
C525        C975   1.455       .  S
N526        C527   1.351       .  A
C527        N528   1.352       .  A
C527        C822   1.450       .  S
C529        N530   1.357       .  A
C529        N534   1.357       .  A
C529        C802   1.486       .  S
N530        C531   1.357       .  A
C531        N532   1.362       .  A
C531        C785   1.484       .  S
N532        C533   1.358       .  A
C533        N534   1.360       .  A
C533        C792   1.501       .  S
O535       Zr571   2.411       .  S
O535        C546   1.288       .  A
O536       Zr570   2.449       .  S
O536        C547   1.293       .  A
O537       Zr543   2.458       .  S
O537        C548   1.295       .  A
O538       Zr543   2.395       .  S
O538        C549   1.284       .  A
O539       Zr573   2.419       .  S
O539        C549   1.289       .  A
O540       Zr572   2.443       .  S
O540        C548   1.293       .  A
O541       Zr543   2.439       .  S
O541        C547   1.293       .  A
O542       Zr543   2.426       .  S
O542        C546   1.290       .  A
Zr543       O544   2.341       .  S
Zr543       O545   2.333       .  S
Zr543       O553   2.351       .  S
Zr543       O551   2.322       .  S
O544       Zr570   2.321       .  S
O544       Zr573   2.336       .  S
O545       Zr571   2.345       .  S
O545       Zr572   2.319       .  S
C546       C1845   1.458       .  S
C547       C1332   1.487       .  S
C548       C1005   1.496       .  S
C549       C1352   1.441       .  S
H550        O551   0.966       .  S
O551       Zr570   2.344       .  S
O551       Zr572   2.345       .  S
H552        O553   0.966       .  S
O553       Zr571   2.344       .  S
O553       Zr573   2.350       .  S
O554       Zr570   2.414       .  S
O554        C577   1.287       .  A
O555       Zr571   2.448       .  S
O555        C578   1.293       .  A
O556       Zr572   2.405       .  S
O556        C579   1.284       .  A
O557       Zr573   2.459       .  S
O557        C580   1.296       .  A
O558       Zr573   2.420       .  S
O558        C581   1.289       .  A
O559       Zr572   2.442       .  S
O559        C582   1.293       .  A
O560       Zr574   2.420       .  S
O560        C583   1.289       .  A
O561       Zr574   2.448       .  S
O561        C584   1.293       .  A
O562       Zr572   2.421       .  S
O562        C583   1.289       .  A
O563       Zr573   2.442       .  S
O563        C584   1.293       .  A
O564       Zr570   2.436       .  S
O564        C579   1.294       .  A
O565       Zr571   2.443       .  S
O565        C582   1.292       .  A
O566       Zr571   2.426       .  S
O566        C581   1.290       .  A
O567       Zr570   2.445       .  S
O567        C580   1.293       .  A
O568       Zr574   2.430       .  S
O568        C577   1.292       .  A
O569       Zr574   2.416       .  S
O569        C578   1.289       .  A
Zr570       O576   2.338       .  S
Zr570       O588   2.343       .  S
Zr571       O575   2.339       .  S
Zr571       O586   2.324       .  S
Zr572       O576   2.344       .  S
Zr572       O586   2.334       .  S
Zr573       O575   2.339       .  S
Zr573       O588   2.323       .  S
Zr574       O575   2.326       .  S
Zr574       O576   2.335       .  S
Zr574       O588   2.329       .  S
Zr574       O586   2.343       .  S
C577        C762   1.470       .  S
C578        C805   1.483       .  S
C579       C1035   1.477       .  S
C580        C775   1.490       .  S
C581       C1785   1.460       .  S
C582       C1815   1.489       .  S
C583        C825   1.461       .  S
C584       C1755   1.488       .  S
H585        O586   0.965       .  S
H587        O588   0.965       .  S
C589        N590   1.350       .  A
C589        N594   1.351       .  A
C589       C1125   1.470       .  S
N590        C591   1.355       .  A
C591        N592   1.356       .  A
C591        C752   1.478       .  S
N592        C593   1.357       .  A
C593        N594   1.351       .  A
C593        C885   1.456       .  S
C595        N596   1.363       .  A
C595        N600   1.360       .  A
C595       C1132   1.496       .  S
N596        C597   1.360       .  A
C597        N598   1.355       .  A
C597        C782   1.483       .  S
N598        C599   1.355       .  A
C599        N600   1.358       .  A
C599        C745   1.477       .  S
C601        N602   1.357       .  A
C601        N606   1.359       .  A
C601        C735   1.470       .  S
N602        C603   1.353       .  A
C603        N604   1.348       .  A
C603       C1195   1.459       .  S
N604        C605   1.349       .  A
C605        N606   1.357       .  A
C605        C765   1.458       .  S
C607        N608   1.359       .  A
C607        N612   1.360       .  A
C607        C772   1.484       .  S
N608        C609   1.360       .  A
C609        N610   1.360       .  A
C609        C905   1.489       .  S
N610        C611   1.359       .  A
C611        N612   1.359       .  A
C611        C722   1.489       .  S
O613       Zr649   2.407       .  S
O613        C624   1.287       .  A
O614       Zr648   2.449       .  S
O614        C625   1.294       .  A
O615       Zr621   2.413       .  S
O615        C626   1.288       .  A
O616       Zr621   2.467       .  S
O616        C627   1.298       .  A
O617       Zr651   2.426       .  S
O617        C627   1.287       .  A
O618       Zr650   2.421       .  S
O618        C626   1.289       .  A
O619       Zr621   2.447       .  S
O619        C625   1.293       .  A
O620       Zr621   2.427       .  S
O620        C624   1.290       .  A
Zr621       O622   2.323       .  S
Zr621       O623   2.350       .  S
Zr621       O631   2.335       .  S
Zr621       O629   2.345       .  S
O622       Zr648   2.339       .  S
O622       Zr651   2.342       .  S
O623       Zr649   2.337       .  S
O623       Zr650   2.336       .  S
C624       C1852   1.458       .  S
C625       C1485   1.488       .  S
C626       C1512   1.451       .  S
C627        C835   1.504       .  S
H628        O629   0.965       .  S
O629       Zr648   2.324       .  S
O629       Zr650   2.343       .  S
H630        O631   0.965       .  S
O631       Zr649   2.348       .  S
O631       Zr651   2.322       .  S
O632       Zr648   2.418       .  S
O632        C655   1.289       .  A
O633       Zr649   2.445       .  S
O633        C656   1.293       .  A
O634       Zr650   2.433       .  S
O634        C657   1.290       .  A
O635       Zr651   2.415       .  S
O635        C658   1.288       .  A
O636       Zr651   2.451       .  S
O636        C659   1.295       .  A
O637       Zr650   2.424       .  S
O637        C660   1.287       .  A
O638       Zr652   2.445       .  S
O638        C661   1.292       .  A
O639       Zr652   2.426       .  S
O639        C662   1.288       .  A
O640       Zr650   2.451       .  S
O640        C661   1.295       .  A
O641       Zr651   2.421       .  S
O641        C662   1.290       .  A
O642       Zr648   2.443       .  S
O642        C657   1.294       .  A
O643       Zr649   2.437       .  S
O643        C660   1.292       .  A
O644       Zr649   2.436       .  S
O644        C659   1.291       .  A
O645       Zr648   2.427       .  S
O645        C658   1.291       .  A
O646       Zr652   2.423       .  S
O646        C655   1.289       .  A
O647       Zr652   2.418       .  S
O647        C656   1.288       .  A
Zr648       O654   2.336       .  S
Zr648       O666   2.350       .  S
Zr649       O653   2.328       .  S
Zr649       O664   2.333       .  S
Zr650       O654   2.324       .  S
Zr650       O664   2.332       .  S
Zr651       O653   2.333       .  S
Zr651       O666   2.349       .  S
Zr652       O653   2.339       .  S
Zr652       O654   2.329       .  S
Zr652       O666   2.339       .  S
Zr652       O664   2.335       .  S
C655        C732   1.457       .  S
C656        C742   1.474       .  S
C657        C725   1.487       .  S
C658        C855   1.463       .  S
C659       C1825   1.487       .  S
C660       C1585   1.488       .  S
C661       C1565   1.493       .  S
C662        C755   1.482       .  S
H663        O664   0.966       .  S
H665        O666   0.966       .  S
O667       Zr703   2.400       .  S
O667        C678   1.285       .  A
O668       Zr702   2.450       .  S
O668        C679   1.293       .  A
O669       Zr675   2.417       .  S
O669        C680   1.289       .  A
O670       Zr675   2.452       .  S
O670        C681   1.294       .  A
O671       Zr705   2.433       .  S
O671        C681   1.291       .  A
O672       Zr704   2.423       .  S
O672        C680   1.288       .  A
O673       Zr675   2.424       .  S
O673        C679   1.290       .  A
O674       Zr675   2.414       .  S
O674        C678   1.289       .  A
Zr675       O676   2.317       .  S
Zr675       O677   2.332       .  S
Zr675       O685   2.338       .  S
Zr675       O683   2.341       .  S
O676       Zr702   2.332       .  S
O676       Zr705   2.333       .  S
O677       Zr703   2.341       .  S
O677       Zr704   2.335       .  S
C678       C1625   1.450       .  S
C679       C1325   1.488       .  S
C680       C1345   1.470       .  S
C681       C1285   1.487       .  S
H682        O683   0.965       .  S
O683       Zr702   2.320       .  S
O683       Zr704   2.328       .  S
H684        O685   0.966       .  S
O685       Zr703   2.348       .  S
O685       Zr705   2.325       .  S
O686       Zr702   2.415       .  S
O686        C709   1.288       .  A
O687       Zr703   2.445       .  S
O687        C710   1.294       .  A
O688       Zr704   2.455       .  S
O688        C711   1.296       .  A
O689       Zr705   2.407       .  S
O689        C712   1.286       .  A
O690       Zr705   2.443       .  S
O690        C713   1.293       .  A
O691       Zr704   2.405       .  S
O691        C714   1.286       .  A
O692       Zr706   2.460       .  S
O692        C715   1.296       .  A
O693       Zr706   2.417       .  S
O693        C716   1.289       .  A
O694       Zr704   2.428       .  S
O694        C715   1.290       .  A
O695       Zr705   2.413       .  S
O695        C716   1.287       .  A
O696       Zr702   2.438       .  S
O696        C711   1.291       .  A
O697       Zr703   2.426       .  S
O697        C714   1.291       .  A
O698       Zr703   2.448       .  S
O698        C713   1.293       .  A
O699       Zr702   2.419       .  S
O699        C712   1.289       .  A
O700       Zr706   2.426       .  S
O700        C709   1.291       .  A
O701       Zr706   2.442       .  S
O701        C710   1.290       .  A
Zr702       O708   2.341       .  S
Zr702       O720   2.345       .  S
Zr703       O707   2.320       .  S
Zr703       O718   2.337       .  S
Zr704       O708   2.321       .  S
Zr704       O718   2.347       .  S
Zr705       O707   2.336       .  S
Zr705       O720   2.347       .  S
Zr706       O707   2.341       .  S
Zr706       O708   2.338       .  S
Zr706       O720   2.350       .  S
Zr706       O718   2.324       .  S
C709       C1212   1.465       .  S
C710        C795   1.501       .  S
C711       C1182   1.494       .  S
C712       C1312   1.447       .  S
C713       C1605   1.492       .  S
C714       C1545   1.462       .  S
C715       C1525   1.485       .  S
C716        C815   1.450       .  S
H717        O718   0.965       .  S
H719        O720   0.966       .  S
C721        C722   1.406       .  A
C721        C726   1.399       .  A
C721        H728   1.083       .  S
C722        C723   1.415       .  A
C723        C724   1.400       .  A
C723       Br730   1.921       .  S
C724        C725   1.405       .  A
C724        H729   1.084       .  S
C725        C726   1.416       .  A
C726       Br727   1.924       .  S
C731        C732   1.401       .  A
C731        C736   1.393       .  A
C731        H738   1.084       .  S
C732        C733   1.403       .  A
C733        C734   1.393       .  A
C733       Br740   1.922       .  S
C734        C735   1.407       .  A
C734        H739   1.083       .  S
C735        C736   1.411       .  A
C736       Br737   1.922       .  S
C741        C742   1.406       .  A
C741        C746   1.400       .  A
C741        H748   1.084       .  S
C742        C743   1.409       .  A
C743        C744   1.394       .  A
C743       Br750   1.922       .  S
C744        C745   1.405       .  A
C744        H749   1.084       .  S
C745        C746   1.410       .  A
C746       Br747   1.919       .  S
C751        C752   1.405       .  A
C751        C756   1.389       .  A
C751        H758   1.083       .  S
C752        C753   1.412       .  A
C753        C754   1.397       .  A
C753       Br760   1.922       .  S
C754        C755   1.408       .  A
C754        H759   1.083       .  S
C755        C756   1.415       .  A
C756       Br757   1.927       .  S
C761        C762   1.404       .  A
C761        C766   1.392       .  A
C761        H768   1.084       .  S
C762        C763   1.414       .  A
C763        C764   1.394       .  A
C763       Br770   1.923       .  S
C764        C765   1.399       .  A
C764        H769   1.084       .  S
C765        C766   1.406       .  A
C766       Br767   1.921       .  S
C771        C772   1.400       .  A
C771        C776   1.397       .  A
C771        H778   1.084       .  S
C772        C773   1.412       .  A
C773        C774   1.406       .  A
C773       Br780   1.918       .  S
C774        C775   1.407       .  A
C774        H779   1.083       .  S
C775        C776   1.414       .  A
C776       Br777   1.912       .  S
C781        C782   1.407       .  A
C781        C786   1.399   1_556  A
C781        H788   1.084       .  S
C782        C783   1.410       .  A
C783        C784   1.397   1_556  A
C783       Br790   1.919       .  S
C784        C785   1.405       .  A
C784        H789   1.083       .  S
C785        C786   1.415       .  A
C786       Br787   1.924       .  S
C791        C792   1.407       .  A
C791        C796   1.398       .  A
C791        H798   1.080       .  S
C792        C793   1.419       .  A
C793        C794   1.404       .  A
C793       Br800   1.923       .  S
C794        C795   1.410       .  A
C794        H799   1.083       .  S
C795        C796   1.418       .  A
C796       Br797   1.925       .  S
C801        C802   1.410       .  A
C801        C806   1.403       .  A
C801        H808   1.083       .  S
C802        C803   1.414       .  A
C803        C804   1.391       .  A
C803       Br810   1.921       .  S
C804        C805   1.405       .  A
C804        H809   1.084       .  S
C805        C806   1.411       .  A
C806       Br807   1.921       .  S
C811        C812   1.406       .  A
C811        C816   1.390       .  A
C811        H818   1.082       .  S
C812        C813   1.410       .  A
C813        C814   1.388       .  A
C813       Br820   1.922       .  S
C814        C815   1.399       .  A
C814        H819   1.084       .  S
C815        C816   1.404       .  A
C816       Br817   1.921       .  S
C821        C822   1.396       .  A
C821        C826   1.390       .  A
C821        H828   1.084       .  S
C822        C823   1.404       .  A
C823        C824   1.394       .  A
C823       Br830   1.920       .  S
C824        C825   1.404       .  A
C824        H829   1.084       .  S
C825        C826   1.410       .  A
C826       Br827   1.922       .  S
C831        C832   1.404       .  A
C831        C836   1.401       .  A
C831        H838   1.083       .  S
C832        C833   1.424       .  A
C833        C834   1.404       .  A
C833       Br840   1.924       .  S
C834        C835   1.406       .  A
C834        H839   1.083       .  S
C835        C836   1.423       .  A
C836       Br837   1.925       .  S
C841        C842   1.411       .  A
C841        C846   1.407       .  A
C841        H848   1.083       .  S
C842        C843   1.413       .  A
C843        C844   1.398       .  A
C843       Br850   1.922       .  S
C844        C845   1.408       .  A
C844        H849   1.084       .  S
C845        C846   1.414       .  A
C846       Br847   1.921       .  S
C851        C852   1.398       .  A
C851        C856   1.392       .  A
C851        H858   1.084       .  S
C852        C853   1.406       .  A
C853        C854   1.393       .  A
C853       Br860   1.919       .  S
C854        C855   1.402       .  A
C854        H859   1.084       .  S
C855        C856   1.411       .  A
C856       Br857   1.920       .  S
C861        C862   1.408       .  A
C861        C866   1.394       .  A
C861        H868   1.083       .  S
C862        C863   1.416       .  A
C863        C864   1.393       .  A
C863       Br870   1.925       .  S
C864        C865   1.401       .  A
C864        H869   1.083       .  S
C865        C866   1.407       .  A
C866       Br867   1.921       .  S
C871        C872   1.405       .  A
C871        C876   1.398       .  A
C871        H878   1.084       .  S
C872        C873   1.409       .  A
C873        C874   1.394       .  A
C873       Br880   1.922       .  S
C874        C875   1.402       .  A
C874        H879   1.075       .  S
C875        C876   1.414       .  A
C876       Br877   1.922       .  S
C881        C882   1.401       .  A
C881        C886   1.392       .  A
C881        H888   1.084       .  S
C882        C883   1.408       .  A
C883        C884   1.390       .  A
C883       Br890   1.924       .  S
C884        C885   1.401       .  A
C884        H889   1.084       .  S
C885        C886   1.405       .  A
C886       Br887   1.919       .  S
C891        C892   1.403       .  A
C891        C896   1.397       .  A
C891        H898   1.084       .  S
C892        C893   1.401       .  A
C893        C894   1.390       .  A
C893       Br900   1.921       .  S
C894        C895   1.408       .  A
C894        H899   1.084       .  S
C895        C896   1.413       .  A
C896       Br897   1.922       .  S
C901        C902   1.407       .  A
C901        C906   1.399       .  A
C901        H908   1.082       .  S
C902        C903   1.415       .  A
C903        C904   1.400       .  A
C903       Br910   1.921       .  S
C904        C905   1.406   1_565  A
C904        H909   1.083   1_565  S
C905        C906   1.414   1_545  A
C906       Br907   1.923   1_565  S
C911        C912   1.408       .  A
C911        C916   1.405       .  A
C911        H918   1.083       .  S
C912        C913   1.411       .  A
C913        C914   1.396       .  A
C913       Br920   1.920       .  S
C914        C915   1.405       .  A
C914        H919   1.084       .  S
C915        C916   1.412       .  A
C916       Br917   1.919       .  S
C921        C922   1.403       .  A
C921        C926   1.394       .  A
C921        H928   1.084       .  S
C922        C923   1.404       .  A
C923        C924   1.391       .  A
C923       Br930   1.922       .  S
C924        C925   1.410       .  A
C924        H929   1.083       .  S
C925        C926   1.415       .  A
C926       Br927   1.924       .  S
C931        C932   1.409       .  A
C931        C936   1.392       .  A
C931        H938   1.083       .  S
C932        C933   1.413       .  A
C933        C934   1.391       .  A
C933       Br940   1.920       .  S
C934        C935   1.400       .  A
C934        H939   1.084       .  S
C935        C936   1.405       .  A
C936       Br937   1.923       .  S
C941        C942   1.404       .  A
C941        C946   1.401       .  A
C941        H948   1.083       .  S
C942        C943   1.412       .  A
C943        C944   1.397       .  A
C943       Br950   1.921       .  S
C944        C945   1.403       .  A
C944        H949   1.084       .  S
C945        C946   1.412       .  A
C946       Br947   1.922       .  S
C951        C952   1.409       .  A
C951        C956   1.400   1_554  A
C951        H958   1.083       .  S
C952        C953   1.414       .  A
C953        C954   1.395   1_554  A
C953       Br960   1.922       .  S
C954        C955   1.407       .  A
C954        H959   1.083       .  S
C955        C956   1.414       .  A
C956       Br957   1.923       .  S
C961        C962   1.407       .  A
C961        C966   1.404       .  A
C961        H968   1.083       .  S
C962        C963   1.417       .  A
C963        C964   1.401       .  A
C963       Br970   1.922       .  S
C964        C965   1.406       .  A
C964        H969   1.084       .  S
C965        C966   1.415       .  A
C966       Br967   1.921       .  S
C971        C972   1.400       .  A
C971        C976   1.390       .  A
C971        H978   1.084       .  S
C972        C973   1.408       .  A
C973        C974   1.386       .  A
C973       Br980   1.923       .  S
C974        C975   1.399       .  A
C974        H979   1.084       .  S
C975        C976   1.410       .  A
C976       Br977   1.921       .  S
C981        C982   1.401       .  A
C981        C986   1.384       .  A
C981        H988   1.082       .  S
C982        C983   1.417       .  A
C983        C984   1.389       .  A
C983       Br990   1.924       .  S
C984        C985   1.398       .  A
C984        H989   1.084       .  S
C985        C986   1.407       .  A
C986       Br987   1.917       .  S
C991        C992   1.405       .  A
C991        C996   1.398       .  A
C991        H998   1.083       .  S
C992        C993   1.414       .  A
C993        C994   1.401       .  A
C993      Br1000   1.920       .  S
C994        C995   1.405       .  A
C994        H999   1.083       .  S
C995        C996   1.415       .  A
C996       Br997   1.921       .  S
C1001      C1002   1.409       .  A
C1001      C1006   1.406       .  A
C1001      H1008   1.083       .  S
C1002      C1003   1.418       .  A
C1003      C1004   1.401       .  A
C1003     Br1010   1.923       .  S
C1004      C1005   1.407       .  A
C1004      H1009   1.084       .  S
C1005      C1006   1.414       .  A
C1006     Br1007   1.920       .  S
C1011      C1012   1.403       .  A
C1011      C1016   1.391       .  A
C1011      H1018   1.084       .  S
C1012      C1013   1.410       .  A
C1013      C1014   1.394       .  A
C1013     Br1020   1.922       .  S
C1014      C1015   1.404       .  A
C1014      H1019   1.084       .  S
C1015      C1016   1.409       .  A
C1016     Br1017   1.921       .  S
C1021      C1022   1.401       .  A
C1021      C1026   1.393       .  A
C1021      H1028   1.084       .  S
C1022      C1023   1.403       .  A
C1023      C1024   1.394       .  A
C1023     Br1030   1.918       .  S
C1024      C1025   1.406       .  A
C1024      H1029   1.084       .  S
C1025      C1026   1.411       .  A
C1026     Br1027   1.921       .  S
C1031      C1032   1.402       .  A
C1031      C1036   1.396       .  A
C1031      H1038   1.084       .  S
C1032      C1033   1.413       .  A
C1033      C1034   1.389       .  A
C1033     Br1040   1.923       .  S
C1034      C1035   1.402       .  A
C1034      H1039   1.083       .  S
C1035      C1036   1.419       .  A
C1036     Br1037   1.926       .  S
C1041      C1042   1.402       .  A
C1041      C1046   1.392       .  A
C1041      H1048   1.084       .  S
C1042      C1043   1.409       .  A
C1043      C1044   1.393       .  A
C1043     Br1050   1.924       .  S
C1044      C1045   1.410       .  A
C1044      H1049   1.083       .  S
C1045      C1046   1.417       .  A
C1046     Br1047   1.923       .  S
C1051      C1052   1.405       .  A
C1051      C1056   1.401       .  A
C1051      H1058   1.083       .  S
C1052      C1053   1.412       .  A
C1053      C1054   1.393       .  A
C1053     Br1060   1.922       .  S
C1054      C1055   1.402       .  A
C1054      H1059   1.084       .  S
C1055      C1056   1.413       .  A
C1056     Br1057   1.921       .  S
C1061      C1062   1.405   1_455  A
C1061      C1066   1.396       .  A
C1061      H1068   1.083       .  S
C1062      C1063   1.410   1_655  A
C1063      C1064   1.397       .  A
C1063     Br1070   1.921   1_455  S
C1064      C1065   1.405       .  A
C1064      H1069   1.081       .  S
C1065      C1066   1.412       .  A
C1066     Br1067   1.922       .  S
C1071      C1072   1.407       .  A
C1071      C1076   1.403       .  A
C1071      H1078   1.083       .  S
C1072      C1073   1.420       .  A
C1073      C1074   1.395       .  A
C1073     Br1080   1.921       .  S
C1074      C1075   1.403       .  A
C1074      H1079   1.083       .  S
C1075      C1076   1.418       .  A
C1076     Br1077   1.923       .  S
C1081      C1082   1.399       .  A
C1081      C1086   1.389       .  A
C1081      H1088   1.084       .  S
C1082      C1083   1.406       .  A
C1083      C1084   1.396       .  A
C1083     Br1090   1.919       .  S
C1084      C1085   1.401       .  A
C1084      H1089   1.084       .  S
C1085      C1086   1.403       .  A
C1086     Br1087   1.917       .  S
C1091      C1092   1.406       .  A
C1091      C1096   1.405       .  A
C1091      H1098   1.083       .  S
C1092      C1093   1.410       .  A
C1093      C1094   1.398       .  A
C1093     Br1100   1.920       .  S
C1094      C1095   1.404       .  A
C1094      H1099   1.084       .  S
C1095      C1096   1.411       .  A
C1096     Br1097   1.919       .  S
C1101      C1102   1.399       .  A
C1101      C1106   1.384       .  A
C1101      H1108   1.084       .  S
C1102      C1103   1.408       .  A
C1103      C1104   1.392       .  A
C1103     Br1110   1.921       .  S
C1104      C1105   1.403       .  A
C1104      H1109   1.084       .  S
C1105      C1106   1.410       .  A
C1106     Br1107   1.924       .  S
C1111      C1112   1.396       .  A
C1111      C1116   1.384       .  A
C1111      H1118   1.084       .  S
C1112      C1113   1.404       .  A
C1113      C1114   1.388       .  A
C1113     Br1120   1.921       .  S
C1114      C1115   1.406       .  A
C1114      H1119   1.083       .  S
C1115      C1116   1.417       .  A
C1116     Br1117   1.928       .  S
C1121      C1122   1.398       .  A
C1121      C1126   1.390       .  A
C1121      H1128   1.085       .  S
C1122      C1123   1.401       .  A
C1123      C1124   1.391       .  A
C1123     Br1130   1.920       .  S
C1124      C1125   1.408       .  A
C1124      H1129   1.083       .  S
C1125      C1126   1.415       .  A
C1126     Br1127   1.923       .  S
C1131      C1132   1.409       .  A
C1131      C1136   1.404       .  A
C1131      H1138   1.082       .  S
C1132      C1133   1.417       .  A
C1133      C1134   1.398       .  A
C1133     Br1140   1.924       .  S
C1134      C1135   1.408       .  A
C1134      H1139   1.083       .  S
C1135      C1136   1.415       .  A
C1136     Br1137   1.921       .  S
C1141      C1142   1.399       .  A
C1141      C1146   1.391       .  A
C1141      H1148   1.084       .  S
C1142      C1143   1.404       .  A
C1143      C1144   1.389       .  A
C1143     Br1150   1.922       .  S
C1144      C1145   1.403       .  A
C1144      H1149   1.084       .  S
C1145      C1146   1.411       .  A
C1146     Br1147   1.922       .  S
C1151      C1152   1.404       .  A
C1151      C1156   1.398       .  A
C1151      H1158   1.084       .  S
C1152      C1153   1.412       .  A
C1153      C1154   1.401       .  A
C1153     Br1160   1.913       .  S
C1154      C1155   1.403       .  A
C1154      H1159   1.084       .  S
C1155      C1156   1.416       .  A
C1156     Br1157   1.923       .  S
C1161      C1162   1.403   1_565  A
C1161      C1166   1.398       .  A
C1161      H1168   1.082   1_565  S
C1162      C1163   1.412   1_545  A
C1163      C1164   1.402       .  A
C1163     Br1170   1.920   1_565  S
C1164      C1165   1.405       .  A
C1164      H1169   1.083       .  S
C1165      C1166   1.413       .  A
C1166     Br1167   1.923       .  S
C1171      C1172   1.406       .  A
C1171      C1176   1.400       .  A
C1171      H1178   1.084       .  S
C1172      C1173   1.417       .  A
C1173      C1174   1.404       .  A
C1173     Br1180   1.922       .  S
C1174      C1175   1.407       .  A
C1174      H1179   1.083       .  S
C1175      C1176   1.419       .  A
C1176     Br1177   1.921       .  S
C1181      C1182   1.405       .  A
C1181      C1186   1.400       .  A
C1181      H1188   1.083       .  S
C1182      C1183   1.418       .  A
C1183      C1184   1.405       .  A
C1183     Br1190   1.922       .  S
C1184      C1185   1.405       .  A
C1184      H1189   1.083       .  S
C1185      C1186   1.415       .  A
C1186     Br1187   1.922       .  S
C1191      C1192   1.400       .  A
C1191      C1196   1.391       .  A
C1191      H1198   1.083       .  S
C1192      C1193   1.412       .  A
C1193      C1194   1.393       .  A
C1193     Br1200   1.922       .  S
C1194      C1195   1.399       .  A
C1194      H1199   1.084       .  S
C1195      C1196   1.410       .  A
C1196     Br1197   1.924       .  S
C1201      C1202   1.407       .  A
C1201      C1206   1.394       .  A
C1201      H1208   1.083       .  S
C1202      C1203   1.413       .  A
C1203      C1204   1.389       .  A
C1203     Br1210   1.918       .  S
C1204      C1205   1.400       .  A
C1204      H1209   1.084       .  S
C1205      C1206   1.407       .  A
C1206     Br1207   1.922       .  S
C1211      C1212   1.402       .  A
C1211      C1216   1.395       .  A
C1211      H1218   1.084       .  S
C1212      C1213   1.407       .  A
C1213      C1214   1.388       .  A
C1213     Br1220   1.922       .  S
C1214      C1215   1.404       .  A
C1214      H1219   1.078       .  S
C1215      C1216   1.416       .  A
C1216     Br1217   1.921       .  S
C1221      C1222   1.400       .  A
C1221      C1226   1.393       .  A
C1221      H1228   1.084       .  S
C1222      C1223   1.404       .  A
C1223      C1224   1.390       .  A
C1223     Br1230   1.915       .  S
C1224      C1225   1.401       .  A
C1224      H1229   1.084       .  S
C1225      C1226   1.412       .  A
C1226     Br1227   1.920       .  S
C1231      C1232   1.413       .  A
C1231      C1236   1.405       .  A
C1231      H1238   1.083       .  S
C1232      C1233   1.416       .  A
C1233      C1234   1.400       .  A
C1233     Br1240   1.923       .  S
C1234      C1235   1.410       .  A
C1234      H1239   1.083       .  S
C1235      C1236   1.415       .  A
C1236     Br1237   1.922       .  S
C1241      C1242   1.397       .  A
C1241      C1246   1.388       .  A
C1241      H1248   1.085       .  S
C1242      C1243   1.404       .  A
C1243      C1244   1.392       .  A
C1243     Br1250   1.921       .  S
C1244      C1245   1.408       .  A
C1244      H1249   1.083       .  S
C1245      C1246   1.417       .  A
C1246     Br1247   1.925       .  S
C1251      C1252   1.407       .  A
C1251      C1256   1.404       .  A
C1251      H1258   1.083       .  S
C1252      C1253   1.415       .  A
C1253      C1254   1.398       .  A
C1253     Br1260   1.922       .  S
C1254      C1255   1.404       .  A
C1254      H1259   1.083       .  S
C1255      C1256   1.413       .  A
C1256     Br1257   1.920       .  S
C1261      C1262   1.408   1_455  A
C1261      C1266   1.403       .  A
C1261      H1268   1.083       .  S
C1262      C1263   1.415   1_655  A
C1263      C1264   1.402       .  A
C1263     Br1270   1.921   1_455  S
C1264      C1265   1.406       .  A
C1264      H1269   1.083       .  S
C1265      C1266   1.414       .  A
C1266     Br1267   1.921       .  S
C1271      C1272   1.409       .  A
C1271      C1276   1.403       .  A
C1271      H1278   1.082       .  S
C1272      C1273   1.418       .  A
C1273      C1274   1.397       .  A
C1273     Br1280   1.923       .  S
C1274      C1275   1.406       .  A
C1274      H1279   1.083       .  S
C1275      C1276   1.416       .  A
C1276     Br1277   1.922       .  S
C1281      C1282   1.404       .  A
C1281      C1286   1.400       .  A
C1281      H1288   1.084       .  S
C1282      C1283   1.414       .  A
C1283      C1284   1.402       .  A
C1283     Br1290   1.920       .  S
C1284      C1285   1.406       .  A
C1284      H1289   1.084       .  S
C1285      C1286   1.413       .  A
C1286     Br1287   1.919       .  S
C1291      C1292   1.399       .  A
C1291      C1296   1.390       .  A
C1291      H1298   1.084       .  S
C1292      C1293   1.408       .  A
C1293      C1294   1.390       .  A
C1293     Br1300   1.920       .  S
C1294      C1295   1.398       .  A
C1294      H1299   1.084       .  S
C1295      C1296   1.405       .  A
C1296     Br1297   1.920       .  S
C1301      C1302   1.403       .  A
C1301      C1306   1.393       .  A
C1301      H1308   1.083       .  S
C1302      C1303   1.415       .  A
C1303      C1304   1.395       .  A
C1303     Br1310   1.924       .  S
C1304      C1305   1.406       .  A
C1304      H1309   1.083       .  S
C1305      C1306   1.421       .  A
C1306     Br1307   1.927       .  S
C1311      C1312   1.401       .  A
C1311      C1316   1.393       .  A
C1311      H1318   1.084       .  S
C1312      C1313   1.401       .  A
C1313      C1314   1.388       .  A
C1313     Br1320   1.923       .  S
C1314      C1315   1.403       .  A
C1314      H1319   1.083       .  S
C1315      C1316   1.408       .  A
C1316     Br1317   1.920       .  S
C1321      C1322   1.409       .  A
C1321      C1326   1.402       .  A
C1321      H1328   1.083       .  S
C1322      C1323   1.416       .  A
C1323      C1324   1.397       .  A
C1323     Br1330   1.921       .  S
C1324      C1325   1.406       .  A
C1324      H1329   1.084       .  S
C1325      C1326   1.412       .  A
C1326     Br1327   1.921       .  S
C1331      C1332   1.405       .  A
C1331      C1336   1.400       .  A
C1331      H1338   1.084       .  S
C1332      C1333   1.414       .  A
C1333      C1334   1.402       .  A
C1333     Br1340   1.920       .  S
C1334      C1335   1.406       .  A
C1334      H1339   1.084       .  S
C1335      C1336   1.413       .  A
C1336     Br1337   1.920       .  S
C1341      C1342   1.399       .  A
C1341      C1346   1.390       .  A
C1341      H1348   1.083       .  S
C1342      C1343   1.406       .  A
C1343      C1344   1.392       .  A
C1343     Br1350   1.921       .  S
C1344      C1345   1.406       .  A
C1344      H1349   1.084       .  S
C1345      C1346   1.414       .  A
C1346     Br1347   1.924       .  S
C1351      C1352   1.399       .  A
C1351      C1356   1.389       .  A
C1351      H1358   1.085       .  S
C1352      C1353   1.401       .  A
C1353      C1354   1.386       .  A
C1353     Br1360   1.921       .  S
C1354      C1355   1.401       .  A
C1354      H1359   1.084       .  S
C1355      C1356   1.407       .  A
C1356     Br1357   1.919   1_655  S
C1361      C1362   1.403       .  A
C1361      C1366   1.395       .  A
C1361      H1368   1.081       .  S
C1362      C1363   1.418       .  A
C1363      C1364   1.408       .  A
C1363     Br1370   1.918       .  S
C1364      C1365   1.407       .  A
C1364      H1369   1.082       .  S
C1365      C1366   1.420       .  A
C1366     Br1367   1.922       .  S
C1371      C1372   1.404       .  A
C1371      C1376   1.398       .  A
C1371      H1378   1.084       .  S
C1372      C1373   1.411       .  A
C1373      C1374   1.407       .  A
C1373     Br1380   1.920       .  S
C1374      C1375   1.409       .  A
C1374      H1379   1.083       .  S
C1375      C1376   1.415       .  A
C1376     Br1377   1.920       .  S
C1381      C1382   1.401   1_565  A
C1381      C1386   1.392       .  A
C1381      H1388   1.084   1_465  S
C1382      C1383   1.405   1_545  A
C1383      C1384   1.391       .  A
C1383     Br1390   1.920   1_565  S
C1384      C1385   1.400       .  A
C1384      H1389   1.084       .  S
C1385      C1386   1.412       .  A
C1386     Br1387   1.923   1_455  S
C1391      C1392   1.407       .  A
C1391      C1396   1.391       .  A
C1391      H1398   1.084       .  S
C1392      C1393   1.412       .  A
C1393      C1394   1.389       .  A
C1393     Br1400   1.924       .  S
C1394      C1395   1.399       .  A
C1394      H1399   1.084       .  S
C1395      C1396   1.405       .  A
C1396     Br1397   1.922       .  S
C1401      C1402   1.402       .  A
C1401      C1406   1.394       .  A
C1401      H1408   1.083       .  S
C1402      C1403   1.414       .  A
C1403      C1404   1.392       .  A
C1403     Br1410   1.921       .  S
C1404      C1405   1.396       .  A
C1404      H1409   1.084       .  S
C1405      C1406   1.407       .  A
C1406     Br1407   1.919       .  S
C1411      C1412   1.409       .  A
C1411      C1416   1.404       .  A
C1411      H1418   1.083       .  S
C1412      C1413   1.417       .  A
C1413      C1414   1.401       .  A
C1413     Br1420   1.924   1_455  S
C1414      C1415   1.408       .  A
C1414      H1419   1.080   1_455  S
C1415      C1416   1.419       .  A
C1416     Br1417   1.923       .  S
C1421      C1422   1.406       .  A
C1421      C1426   1.398       .  A
C1421      H1428   1.084       .  S
C1422      C1423   1.412       .  A
C1423      C1424   1.402       .  A
C1423     Br1430   1.921       .  S
C1424      C1425   1.408       .  A
C1424      H1429   1.083       .  S
C1425      C1426   1.417       .  A
C1426     Br1427   1.924       .  S
C1431      C1432   1.404       .  A
C1431      C1436   1.399       .  A
C1431      H1438   1.083       .  S
C1432      C1433   1.414       .  A
C1433      C1434   1.402       .  A
C1433     Br1440   1.921       .  S
C1434      C1435   1.406       .  A
C1434      H1439   1.084       .  S
C1435      C1436   1.417       .  A
C1436     Br1437   1.923       .  S
C1441      C1442   1.406       .  A
C1441      C1446   1.385       .  A
C1441      H1448   1.081       .  S
C1442      C1443   1.410       .  A
C1443      C1444   1.391       .  A
C1443     Br1450   1.923       .  S
C1444      C1445   1.408       .  A
C1444      H1449   1.083       .  S
C1445      C1446   1.412       .  A
C1446     Br1447   1.928       .  S
C1451      C1452   1.399       .  A
C1451      C1456   1.391       .  A
C1451      H1458   1.084       .  S
C1452      C1453   1.405       .  A
C1453      C1454   1.393       .  A
C1453     Br1460   1.920       .  S
C1454      C1455   1.404       .  A
C1454      H1459   1.084       .  S
C1455      C1456   1.409       .  A
C1456     Br1457   1.921       .  S
C1461      C1462   1.408       .  A
C1461      C1466   1.405       .  A
C1461      H1468   1.083       .  S
C1462      C1463   1.414       .  A
C1463      C1464   1.399       .  A
C1463     Br1470   1.922   1_455  S
C1464      C1465   1.405       .  A
C1464      H1469   1.083   1_455  S
C1465      C1466   1.414       .  A
C1466     Br1467   1.920       .  S
C1471      C1472   1.411       .  A
C1471      C1476   1.407       .  A
C1471      H1478   1.083       .  S
C1472      C1473   1.417       .  A
C1473      C1474   1.400       .  A
C1473     Br1480   1.923       .  S
C1474      C1475   1.407       .  A
C1474      H1479   1.083       .  S
C1475      C1476   1.415       .  A
C1476     Br1477   1.921       .  S
C1481      C1482   1.407       .  A
C1481      C1486   1.404       .  A
C1481      H1488   1.083       .  S
C1482      C1483   1.416       .  A
C1483      C1484   1.402       .  A
C1483     Br1490   1.922       .  S
C1484      C1485   1.404       .  A
C1484      H1489   1.084       .  S
C1485      C1486   1.412       .  A
C1486     Br1487   1.919       .  S
C1491      C1492   1.400   1_565  A
C1491      C1496   1.388       .  A
C1491      H1498   1.084   1_565  S
C1492      C1493   1.410   1_545  A
C1493      C1494   1.389       .  A
C1493     Br1500   1.920   1_465  S
C1494      C1495   1.398       .  A
C1494      H1499   1.084   1_455  S
C1495      C1496   1.409       .  A
C1496     Br1497   1.922       .  S
C1501      C1502   1.402       .  A
C1501      C1506   1.391       .  A
C1501      H1508   1.083       .  S
C1502      C1503   1.410       .  A
C1503      C1504   1.392       .  A
C1503     Br1510   1.920       .  S
C1504      C1505   1.397       .  A
C1504      H1509   1.084       .  S
C1505      C1506   1.401       .  A
C1506     Br1507   1.915       .  S
C1511      C1512   1.400       .  A
C1511      C1516   1.391       .  A
C1511      H1518   1.084       .  S
C1512      C1513   1.402       .  A
C1513      C1514   1.388       .  A
C1513     Br1520   1.919       .  S
C1514      C1515   1.406       .  A
C1514      H1519   1.081       .  S
C1515      C1516   1.411       .  A
C1516     Br1517   1.920   1_655  S
C1521      C1522   1.402       .  A
C1521      C1526   1.396       .  A
C1521      H1528   1.084       .  S
C1522      C1523   1.415       .  A
C1523      C1524   1.404       .  A
C1523     Br1530   1.919       .  S
C1524      C1525   1.405       .  A
C1524      H1529   1.083       .  S
C1525      C1526   1.415       .  A
C1526     Br1527   1.921       .  S
C1531      C1532   1.403       .  A
C1531      C1536   1.398       .  A
C1531      H1538   1.083       .  S
C1532      C1533   1.417       .  A
C1533      C1534   1.406       .  A
C1533     Br1540   1.921       .  S
C1534      C1535   1.407       .  A
C1534      H1539   1.083       .  S
C1535      C1536   1.420       .  A
C1536     Br1537   1.920       .  S
C1541      C1542   1.395       .  A
C1541      C1546   1.389       .  A
C1541      H1548   1.084       .  S
C1542      C1543   1.405       .  A
C1543      C1544   1.391       .  A
C1543     Br1550   1.918       .  S
C1544      C1545   1.403       .  A
C1544      H1549   1.084       .  S
C1545      C1546   1.413       .  A
C1546     Br1547   1.922       .  S
C1551      C1552   1.408       .  A
C1551      C1556   1.399       .  A
C1551      H1558   1.083       .  S
C1552      C1553   1.414       .  A
C1553      C1554   1.388       .  A
C1553     Br1560   1.924       .  S
C1554      C1555   1.393       .  A
C1554      H1559   1.080       .  S
C1555      C1556   1.406       .  A
C1556     Br1557   1.920       .  S
C1561      C1562   1.409       .  A
C1561      C1566   1.407       .  A
C1561      H1568   1.083       .  S
C1562      C1563   1.415       .  A
C1563      C1564   1.398       .  A
C1563     Br1570   1.924       .  S
C1564      C1565   1.403       .  A
C1564      H1569   1.079       .  S
C1565      C1566   1.415       .  A
C1566     Br1567   1.922       .  S
C1571      C1572   1.409       .  A
C1571      C1576   1.404       .  A
C1571      H1578   1.083       .  S
C1572      C1573   1.414       .  A
C1573      C1574   1.397       .  A
C1573     Br1580   1.911       .  S
C1574      C1575   1.404       .  A
C1574      H1579   1.084       .  S
C1575      C1576   1.412       .  A
C1576     Br1577   1.919       .  S
C1581      C1582   1.403       .  A
C1581      C1586   1.391       .  A
C1581      H1588   1.083       .  S
C1582      C1583   1.415       .  A
C1583      C1584   1.400       .  A
C1583     Br1590   1.922       .  S
C1584      C1585   1.408       .  A
C1584      H1589   1.083       .  S
C1585      C1586   1.417       .  A
C1586     Br1587   1.924       .  S
C1591      C1592   1.407       .  A
C1591      C1596   1.396       .  A
C1591      H1598   1.083       .  S
C1592      C1593   1.417       .  A
C1593      C1594   1.391       .  A
C1593     Br1600   1.925       .  S
C1594      C1595   1.396       .  A
C1594      H1599   1.081       .  S
C1595      C1596   1.403       .  A
C1596     Br1597   1.920       .  S
C1601      C1602   1.407       .  A
C1601      C1606   1.404       .  A
C1601      H1608   1.083       .  S
C1602      C1603   1.414       .  A
C1603      C1604   1.399       .  A
C1603     Br1610   1.922       .  S
C1604      C1605   1.406       .  A
C1604      H1609   1.084       .  S
C1605      C1606   1.415       .  A
C1606     Br1607   1.921       .  S
C1611      C1612   1.408       .  A
C1611      C1616   1.403       .  A
C1611      H1618   1.083       .  S
C1612      C1613   1.419       .  A
C1613      C1614   1.398       .  A
C1613     Br1620   1.925       .  S
C1614      C1615   1.406       .  A
C1614      H1619   1.080       .  S
C1615      C1616   1.418       .  A
C1616     Br1617   1.922       .  S
C1621      C1622   1.397       .  A
C1621      C1626   1.390       .  A
C1621      H1628   1.084       .  S
C1622      C1623   1.403       .  A
C1623      C1624   1.383       .  A
C1623     Br1630   1.921       .  S
C1624      C1625   1.399       .  A
C1624      H1629   1.084       .  S
C1625      C1626   1.410       .  A
C1626     Br1627   1.920       .  S
C1631      C1632   1.404       .  A
C1631      C1636   1.387       .  A
C1631      H1638   1.083       .  S
C1632      C1633   1.412       .  A
C1633      C1634   1.388       .  A
C1633     Br1640   1.924       .  S
C1634      C1635   1.399       .  A
C1634      H1639   1.085       .  S
C1635      C1636   1.403       .  A
C1636     Br1637   1.921       .  S
C1641      C1642   1.407       .  A
C1641      C1646   1.400       .  A
C1641      H1648   1.083       .  S
C1642      C1643   1.418       .  A
C1643      C1644   1.400       .  A
C1643     Br1650   1.923       .  S
C1644      C1645   1.407       .  A
C1644      H1649   1.083       .  S
C1645      C1646   1.420       .  A
C1646     Br1647   1.925       .  S
C1651      C1652   1.408       .  A
C1651      C1656   1.408       .  A
C1651      H1658   1.083       .  S
C1652      C1653   1.415       .  A
C1653      C1654   1.395       .  A
C1653     Br1660   1.914       .  S
C1654      C1655   1.401       .  A
C1654      H1659   1.084       .  S
C1655      C1656   1.414       .  A
C1656     Br1657   1.919       .  S
C1661      C1662   1.400       .  A
C1661      C1666   1.390       .  A
C1661      H1668   1.084       .  S
C1662      C1663   1.404       .  A
C1663      C1664   1.389       .  A
C1663     Br1670   1.921       .  S
C1664      C1665   1.404       .  A
C1664      H1669   1.084       .  S
C1665      C1666   1.409       .  A
C1666     Br1667   1.924       .  S
C1671      C1672   1.405       .  A
C1671      C1676   1.390       .  A
C1671      H1678   1.083       .  S
C1672      C1673   1.419       .  A
C1673      C1674   1.392       .  A
C1673     Br1680   1.923       .  S
C1674      C1675   1.399       .  A
C1674      H1679   1.084       .  S
C1675      C1676   1.407       .  A
C1676     Br1677   1.920       .  S
C1681      C1682   1.409   1_545  A
C1681      C1686   1.400       .  A
C1681      H1688   1.083       .  S
C1682      C1683   1.415       .  A
C1683      C1684   1.398       .  A
C1683     Br1690   1.923       .  S
C1684      C1685   1.406       .  A
C1684      H1689   1.084       .  S
C1685      C1686   1.410   1_565  A
C1686     Br1687   1.920       .  S
C1691      C1692   1.405       .  A
C1691      C1696   1.394       .  A
C1691      H1698   1.083       .  S
C1692      C1693   1.414       .  A
C1693      C1694   1.396       .  A
C1693     Br1700   1.922       .  S
C1694      C1695   1.406       .  A
C1694      H1699   1.084       .  S
C1695      C1696   1.414       .  A
C1696     Br1697   1.924       .  S
C1701      C1702   1.407       .  A
C1701      C1706   1.398       .  A
C1701      H1708   1.084       .  S
C1702      C1703   1.414       .  A
C1703      C1704   1.398       .  A
C1703     Br1710   1.922       .  S
C1704      C1705   1.404       .  A
C1704      H1709   1.083       .  S
C1705      C1706   1.413       .  A
C1706     Br1707   1.923       .  S
C1711      C1712   1.400   1_545  A
C1711      C1716   1.385   1_556  A
C1711      H1718   1.083       .  S
C1712      C1713   1.410       .  A
C1713      C1714   1.395   1_556  A
C1713     Br1720   1.921       .  S
C1714      C1715   1.406       .  A
C1714      H1719   1.083       .  S
C1715      C1716   1.416   1_565  A
C1716     Br1717   1.922       .  S
C1721      C1722   1.406       .  A
C1721      C1726   1.391       .  A
C1721      H1728   1.083       .  S
C1722      C1723   1.415       .  A
C1723      C1724   1.396       .  A
C1723     Br1730   1.923       .  S
C1724      C1725   1.401       .  A
C1724      H1729   1.084       .  S
C1725      C1726   1.406       .  A
C1726     Br1727   1.921       .  S
C1731      C1732   1.409       .  A
C1731      C1736   1.395       .  A
C1731      H1738   1.083       .  S
C1732      C1733   1.414       .  A
C1733      C1734   1.387       .  A
C1733     Br1740   1.926       .  S
C1734      C1735   1.405       .  A
C1734      H1739   1.084       .  S
C1735      C1736   1.411       .  A
C1736     Br1737   1.924       .  S
C1741      C1742   1.405       .  A
C1741      C1746   1.397       .  A
C1741      H1748   1.083       .  S
C1742      C1743   1.414   1_565  A
C1743      C1744   1.400       .  A
C1743     Br1750   1.922       .  S
C1744      C1745   1.405   1_545  A
C1744      H1749   1.083       .  S
C1745      C1746   1.413       .  A
C1746     Br1747   1.922       .  S
C1751      C1752   1.403       .  A
C1751      C1756   1.398       .  A
C1751      H1758   1.084       .  S
C1752      C1753   1.411       .  A
C1753      C1754   1.404       .  A
C1753     Br1760   1.920       .  S
C1754      C1755   1.408       .  A
C1754      H1759   1.083       .  S
C1755      C1756   1.414       .  A
C1756     Br1757   1.921       .  S
C1761      C1762   1.405       .  A
C1761      C1766   1.398       .  A
C1761      H1768   1.083       .  S
C1762      C1763   1.421       .  A
C1763      C1764   1.402       .  A
C1763     Br1770   1.923       .  S
C1764      C1765   1.406       .  A
C1764      H1769   1.083       .  S
C1765      C1766   1.421       .  A
C1766     Br1767   1.927       .  S
C1771      C1772   1.404       .  A
C1771      C1776   1.397   1_554  A
C1771      H1778   1.083   1_565  S
C1772      C1773   1.410       .  A
C1773      C1774   1.386   1_554  A
C1773     Br1780   1.926       .  S
C1774      C1775   1.403       .  A
C1774      H1779   1.084       .  S
C1775      C1776   1.409       .  A
C1776     Br1777   1.918   1_565  S
C1781      C1782   1.407       .  A
C1781      C1786   1.391       .  A
C1781      H1788   1.083       .  S
C1782      C1783   1.418       .  A
C1783      C1784   1.394       .  A
C1783     Br1790   1.923       .  S
C1784      C1785   1.399       .  A
C1784      H1789   1.084       .  S
C1785      C1786   1.404       .  A
C1786     Br1787   1.920       .  S
C1791      C1792   1.399       .  A
C1791      C1796   1.392       .  A
C1791      H1798   1.084       .  S
C1792      C1793   1.409       .  A
C1793      C1794   1.392       .  A
C1793     Br1800   1.919       .  S
C1794      C1795   1.397       .  A
C1794      H1799   1.084       .  S
C1795      C1796   1.404       .  A
C1796     Br1797   1.920       .  S
C1801      C1802   1.403       .  A
C1801      C1806   1.399       .  A
C1801      H1808   1.083       .  S
C1802      C1803   1.409   1_554  A
C1803      C1804   1.402       .  A
C1803     Br1810   1.915       .  S
C1804      C1805   1.403   1_556  A
C1804      H1809   1.084       .  S
C1805      C1806   1.410       .  A
C1806     Br1807   1.920       .  S
C1811      C1812   1.408       .  A
C1811      C1816   1.404       .  A
C1811      H1818   1.083       .  S
C1812      C1813   1.413       .  A
C1813      C1814   1.397       .  A
C1813     Br1820   1.921       .  S
C1814      C1815   1.405       .  A
C1814      H1819   1.084       .  S
C1815      C1816   1.415       .  A
C1816     Br1817   1.921       .  S
C1821      C1822   1.406       .  A
C1821      C1826   1.397       .  A
C1821      H1828   1.083       .  S
C1822      C1823   1.416       .  A
C1823      C1824   1.403       .  A
C1823     Br1830   1.916       .  S
C1824      C1825   1.405       .  A
C1824      H1829   1.084       .  S
C1825      C1826   1.414       .  A
C1826     Br1827   1.922       .  S
C1831      C1832   1.401       .  A
C1831      C1836   1.387       .  A
C1831      H1838   1.084       .  S
C1832      C1833   1.406   1_556  A
C1833      C1834   1.389       .  A
C1833     Br1840   1.921       .  S
C1834      C1835   1.400   1_554  A
C1834      H1839   1.084       .  S
C1835      C1836   1.404       .  A
C1836     Br1837   1.922       .  S
C1841      C1842   1.407       .  A
C1841      C1846   1.393       .  A
C1841      H1848   1.083       .  S
C1842      C1843   1.413       .  A
C1843      C1844   1.389       .  A
C1843     Br1850   1.925       .  S
C1844      C1845   1.400       .  A
C1844      H1849   1.084       .  S
C1845      C1846   1.405       .  A
C1846     Br1847   1.922       .  S
C1851      C1852   1.404       .  A
C1851      C1856   1.390       .  A
C1851      H1858   1.084       .  S
C1852      C1853   1.409       .  A
C1853      C1854   1.391       .  A
C1853     Br1860   1.923       .  S
C1854      C1855   1.399       .  A
C1854      H1859   1.084       .  S
C1855      C1856   1.403       .  A
C1856     Br1857   1.921       .  S
C1861      C1862   1.405   1_554  A
C1861      C1866   1.400       .  A
C1861      H1868   1.084       .  S
C1862      C1863   1.409       .  A
C1863      C1864   1.400       .  A
C1863     Br1870   1.920       .  S
C1864      C1865   1.406   1_556  A
C1864      H1869   1.082       .  S
C1865      C1866   1.411       .  A
C1866     Br1867   1.919       .  S
C1871      C1872   1.405       .  A
C1871      C1876   1.403       .  A
C1871      H1878   1.083       .  S
C1872      C1873   1.407       .  A
C1873      C1874   1.395       .  A
C1873     Br1880   1.913       .  S
C1874      C1875   1.403       .  A
C1874      H1879   1.084       .  S
C1875      C1876   1.410       .  A
C1876     Br1877   1.918       .  S
C1881      C1882   1.407       .  A
C1881      C1886   1.397       .  A
C1881      H1888   1.083       .  S
C1882      C1883   1.413       .  A
C1883      C1884   1.405       .  A
C1883     Br1890   1.921       .  S
C1884      C1885   1.411       .  A
C1884      H1889   1.083       .  S
C1885      C1886   1.420       .  A
C1886     Br1887   1.923       .  S
C1891      C1892   1.404       .  A
C1891      C1896   1.391       .  A
C1891      H1898   1.084       .  S
C1892      C1893   1.407   1_554  A
C1893      C1894   1.388       .  A
C1893     Br1900   1.921       .  S
C1894      C1895   1.401   1_556  A
C1894      H1899   1.081       .  S
C1895      C1896   1.410       .  A
C1896     Br1897   1.923       .  S
C1901      C1902   1.406       .  A
C1901      C1906   1.387       .  A
C1901      H1908   1.083       .  S
C1902      C1903   1.414       .  A
C1903      C1904   1.386       .  A
C1903     Br1910   1.924       .  S
C1904      C1905   1.404       .  A
C1904      H1909   1.083       .  S
C1905      C1906   1.411       .  A
C1906     Br1907   1.925       .  S
C1911      C1912   1.397       .  A
C1911      C1916   1.387       .  A
C1911      H1918   1.085       .  S
C1912      C1913   1.402       .  A
C1913      C1914   1.390       .  A
C1913     Br1920   1.919       .  S
C1914      C1915   1.403       .  A
C1914      H1919   1.084       .  S
C1915      C1916   1.409       .  A
C1916     Br1917   1.916       .  S
