geometry optimzed in LAMMPS
_audit_creation_date              2020-11-30 
_audit_creation_method            'lammps2cif' 
_symmetry_space_group_name_H-M    'P1' 
_symmetry_Int_Tables_number       1 
_symmetry_cell_setting            triclinic 
loop_ 
_symmetry_equiv_pos_as_xyz 
  x,y,z 
_cell_length_a                    42.97009422 
_cell_length_b                    43.18707628594022 
_cell_length_c                    29.140471970778513 
_cell_angle_alpha                 89.77172232139841 
_cell_angle_beta                  90.28673001739276 
_cell_angle_gamma                 118.96140180874421 
loop_ 
_atom_site_label 
_atom_site_type_symbol 
_atom_site_fract_x 
_atom_site_fract_y 
_atom_site_fract_z 
_atom_site_charge 
C1          C  0.33125441  0.16916034  0.03754810     0.32600
C2          C  0.33335847  0.16759097  0.44022058     0.32600
C3          C  0.34734043  0.14663980  0.01531589    -0.03600
C4          C  0.29304226  0.15045647  0.01590516    -0.04400
C5          C  0.34975906  0.20346014  0.00698335    -0.04300
C6          C  0.35383052  0.15111106  0.46602889    -0.03600
C7          C  0.29744187  0.15043463  0.46652544    -0.04400
C8          C  0.35151133  0.20482420  0.46088050    -0.04300
C9          C  0.37338246  0.13468740  0.45308196    -0.29700
N10         N  0.38693827  0.12686659  0.49107841     0.16800
C11         C  0.36687557  0.13005621  0.02955459    -0.29700
H12         H  0.37482385  0.12869145  0.06448057     0.18800
C13         C  0.26174314  0.13125114  0.45464310    -0.28600
N14         N  0.23512551  0.11994276  0.99645174     0.15600
C15         C  0.25829519  0.13377803  0.03238587    -0.28600
C16         C  0.36894298  0.23784952  0.44154677    -0.28900
N17         N  0.38112059  0.25550396  0.96994604     0.16100
H18         H  0.37231174  0.24381589  0.40519379     0.18700
C19         C  0.37174440  0.23996805  0.01241402    -0.28900
H20         H  0.38057951  0.25393367  0.04460681     0.18700
H21         H  0.25054386  0.13110809  0.06808906     0.18700
H22         H  0.37761575  0.12905642  0.41820104     0.18800
H23         H  0.25123237  0.12407981  0.42015784     0.18700
C24         C  0.33250395  0.17383745  0.28838884     0.32600
C25         C  0.33270257  0.17808793  0.19057124     0.32600
C26         C  0.35261913  0.15793959  0.26162177    -0.03600
C27         C  0.29584649  0.15561397  0.26356439    -0.04400
C28         C  0.34904723  0.21169597  0.26684621    -0.04300
C29         C  0.35263950  0.16013002  0.21319686    -0.03600
C30         C  0.29579374  0.15757222  0.21493454    -0.04400
C31         C  0.34937311  0.21422846  0.21806250    -0.04300
C32         C  0.37013260  0.14263093  0.19705616    -0.29700
N33         N  0.38066537  0.12999838  0.23329448     0.16800
C34         C  0.37017604  0.13908021  0.27272420    -0.29700
H35         H  0.37426413  0.13181279  0.30692621     0.18800
C36         C  0.26029006  0.13940749  0.20145987    -0.28600
N37         N  0.23928067  0.12684070  0.23941899     0.15600
C38         C  0.26063654  0.13652337  0.27721927    -0.29400
C39         C  0.36490127  0.25055259  0.20846125    -0.28900
N40         N  0.37367057  0.26953464  0.24858537     0.16100
H41         H  0.36943996  0.26223005  0.17456065     0.18700
C42         C  0.36407238  0.24598842  0.28399093    -0.28900
H43         H  0.36775856  0.25323754  0.31990285     0.18700
H44         H  0.25126417  0.13008634  0.31220230     0.18700
H45         H  0.37417664  0.13866689  0.16138395     0.18800
H46         H  0.25049763  0.13561507  0.16650674     0.18700
C47         C  0.06814442  0.44404812  0.35416911     0.45000
N48         N  0.03105704  0.46420140  0.35930090     0.03900
C49         C  0.06643176  0.12728243  0.44726930    -0.03900
H50         H  0.09733685  0.06825759  0.04953766     0.09400
C51         C  0.47059835  0.43542323  0.03337427    -0.04300
Co52       Co  0.05511033  0.03695573  0.38747871     0.74200
N53         N  0.07428138  0.04340316  0.48613977    -0.23500
Co54       Co  0.02694350  0.04742926  0.48673531     0.74100
C55         C  0.45507870  0.45298477  0.05718021     0.45100
N56         N  0.44494328  0.42135151  0.44048049     0.03500
N57         N  0.99798076  0.00430093  0.53003865     0.03700
N58         N  0.08988264  0.11970802  0.38115370    -0.44300
H59         H  0.11509686  0.49711366  0.37574647     0.09400
N60         N  0.08468579  0.03857179  0.44547221     0.03900
N61         N  0.48247076  0.05328470  0.48233572     0.03700
C62         C  0.44299624  0.07115267  0.48342572     0.45300
N63         N  0.45805203  0.41822447  0.40116262    -0.22900
C64         C  0.00071064  0.06479603  0.38111548    -0.03800
N65         N  0.03334375  0.43509726  0.35077316    -0.44000
N66         N  0.47835861  0.08186833  0.48770334    -0.44300
C67         C  0.46872528  0.05487397  0.38758064     0.45100
N68         N  0.07224200  0.08957530  0.40440099     0.03900
N69         N  0.42987779  0.46324992  0.37033811    -0.23000
N70         N  0.06249641  0.49130417  0.36950143    -0.23400
N71         N  0.42069468  0.46910396  0.41096535     0.03600
H72         H  0.39697376  0.43642483  0.31117360     0.09500
H73         H  0.39794398  0.01523419  0.46721401     0.09500
N74         N  0.05740428  0.09291506  0.44265614    -0.23500
N75         N  0.49165500  0.47180660  0.50429581    -0.23100
N76         N  0.50376912  0.51870214  0.34246729     0.03900
C77         C  0.13291974  0.05965437  0.48624696     0.45300
C78         C  0.44964380  0.38396142  0.39587607    -0.04400
N79         N  0.45157178  0.02356737  0.47629495    -0.23100
H80         H  0.45806365  0.40747992  0.02717796     0.09500
N81         N  0.11906488  0.04819667  0.44411210    -0.44300
H82         H  0.45559551  0.37280181  0.36621209     0.09500
C83         C  0.37126737  0.44628782  0.37390583     0.45200
C84         C  0.08734103  0.48112439  0.36671323    -0.03900
Co85       Co  0.48084685  0.46527011  0.36335545     0.73800
N86         N  0.42750408  0.39105117  0.46309512    -0.44000
C87         C  0.08781913  0.14491022  0.40655761     0.45400
N88         N  0.48889501  0.53622320  0.36158513    -0.44000
Co89       Co  0.45322956  0.47109843  0.46243464     0.73900
C90         C  0.42570923  0.03297144  0.47452870    -0.04400
C91         C  0.10309509  0.05703021  0.51422506    -0.03900
N92         N  0.00771932  0.03711846  0.38328967    -0.23500
N93         N  0.96648195  0.00891056  0.05095277    -0.44200
H94         H  0.05857694  0.13842032  0.47517752     0.09400
C95         C  0.39965236  0.44736946  0.34499228    -0.04300
Cl96       Cl  0.50153198  0.00164604  0.42405008    -0.47300
C97         C  0.42964335  0.36618609  0.43777572     0.45200
H98         H  0.01897686  0.09162071  0.37102858     0.09400
N99         N  0.38634362  0.45886969  0.41497639    -0.44000
C100        C  0.05799563  0.44037945  0.11895512     0.45000
N101        N  0.01328592  0.44974012  0.12732007     0.03900
C102        C  0.06114069  0.12933312  0.17913837    -0.03900
H103        H  0.10460328  0.08305115  0.29098205     0.09400
C104        C  0.43034570  0.51761896  0.30150026    -0.04300
Co105      Co  0.05038972  0.03503219  0.13601955     0.74200
N106        N  0.07251708  0.05226863  0.23373239    -0.23500
Co107      Co  0.02490270  0.05591216  0.23105311     0.74100
C108        C  0.44208852  0.55499637  0.30395737     0.45100
N109        N  0.44412937  0.43458253  0.25017806     0.03500
N110        N  0.49666304  0.02391718  0.28244715     0.03700
N111        N  0.08401955  0.11713170  0.11579206    -0.44300
H112        H  0.09656578  0.49987946  0.11016397     0.09400
N113        N  0.08156581  0.04290929  0.19489452     0.03900
N114        N  0.47259583  0.05629496  0.21979764     0.03700
C115        C  0.43093918  0.07056978  0.21908931     0.45300
N116        N  0.46493425  0.42940921  0.22146077    -0.22900
C117        C  0.99363002  0.06134972  0.11788416    -0.03800
N118        N  0.02299014  0.42481197  0.12906905    -0.44000
N119        N  0.46656818  0.08372053  0.22075188    -0.44300
C120        C  0.45051406  0.04385633  0.12323519     0.45100
N121        N  0.06671707  0.08876375  0.14251783     0.03900
N122        N  0.41484095  0.42245455  0.15155394    -0.23000
N123        N  0.04024571  0.48160508  0.11748129    -0.23400
N124        N  0.40124868  0.43656510  0.17990712     0.03600
H125        H  0.39048087  0.38193662  0.09916653     0.09500
H126        H  0.38716736  0.01218648  0.21779191     0.09500
N127        N  0.05255509  0.09509505  0.17923387    -0.23500
N128        N  0.45552773  0.51379135  0.27814890    -0.23100
N129        N  0.46084232  0.49290302  0.13658912     0.03900
C130        C  0.13045333  0.06619758  0.23412043     0.45300
C131        C  0.45998845  0.39637903  0.22640028    -0.04400
N132        N  0.44260338  0.02504741  0.21926321    -0.23100
H133        H  0.40243107  0.49850225  0.29971333     0.09500
N134        N  0.11554167  0.05107299  0.19371391    -0.44300
H135        H  0.46686770  0.38310175  0.20016179     0.09500
C136        C  0.35567420  0.39680740  0.14487733     0.45200
C137        C  0.06965318  0.47816384  0.11187790    -0.03900
Co138      Co  0.47007320  0.45096906  0.15663495     0.73800
N139        N  0.42220548  0.40410002  0.27139022    -0.44000
C140        C  0.08162830  0.14380809  0.13734137     0.45400
N141        N  0.42932268  0.48882231  0.12533418    -0.44000
Co142      Co  0.43276538  0.47631272  0.22810456     0.73900
C143        C  0.41500749  0.03190134  0.21753224    -0.04400
C144        C  0.10188049  0.06754755  0.26067637    -0.03900
N145        N  0.00259460  0.03560061  0.12717224    -0.23500
N146        N  0.97405241  0.02826235  0.30096710    -0.44200
H147        H  0.05434609  0.14254305  0.20554037     0.09400
C148        C  0.38784035  0.39682429  0.12720193    -0.04300
Cl149      Cl  0.49738534  0.00402891  0.18213561    -0.47300
C150        C  0.43119412  0.37888779  0.25903358     0.45200
H151        H  0.01113633  0.08760489  0.10503470     0.09400
N152        N  0.36634763  0.42187295  0.17726493    -0.44000
C153        C  0.16860063  0.34087699  0.32178712     0.32600
C154        C  0.17084703  0.34496065  0.41966290     0.32600
C155        C  0.14857039  0.35818627  0.34510695    -0.03600
C156        C  0.15318132  0.30526476  0.34921015    -0.04400
C157        C  0.20581166  0.36195720  0.34490887    -0.04300
C158        C  0.14948278  0.36030373  0.39375566    -0.03600
C159        C  0.15452755  0.30778776  0.39783083    -0.04400
C160        C  0.20696834  0.36391596  0.39363098    -0.04300
C161        C  0.12974922  0.37670489  0.40542243    -0.29700
N162        N  0.11720497  0.38419903  0.36626011     0.16800
C163        C  0.12852328  0.37317079  0.32957620    -0.29700
H164        H  0.12283344  0.37614112  0.29409379     0.18800
C165        C  0.14012821  0.27393960  0.41516367    -0.28600
N166        N  0.13003376  0.25075148  0.37975894     0.15600
C167        C  0.13773411  0.26928538  0.33947908    -0.28600
C168        C  0.24257579  0.38250961  0.40578264    -0.28900
N169        N  0.26272901  0.39173735  0.36703976     0.16100
H170        H  0.25308409  0.38843526  0.44038887     0.18700
C171        C  0.24074794  0.37945554  0.32991885    -0.28900
H172        H  0.24952688  0.38249079  0.29463011     0.18700
H173        H  0.13273268  0.25754193  0.30565636     0.18700
H174        H  0.12515656  0.38302377  0.43977683     0.18800
H175        H  0.13741755  0.26669067  0.45111471     0.18700
C176        C  0.16547365  0.34302539  0.07130220     0.32600
C177        C  0.16529911  0.34162120  0.16918228     0.32600
C178        C  0.14571866  0.36032918  0.09643296    -0.03600
C179        C  0.14838121  0.30607758  0.09511297    -0.04400
C180        C  0.20192729  0.36133994  0.09597136    -0.04300
C181        C  0.14563252  0.35957918  0.14520058    -0.03600
C182        C  0.14833083  0.30557065  0.14384505    -0.04400
C183        C  0.20189335  0.36067027  0.14487393    -0.04300
C184        C  0.12712415  0.37669300  0.15943230    -0.29700
N185        N  0.11613078  0.38771121  0.12184795     0.16800
C186        C  0.12721490  0.37788016  0.08352071    -0.29700
H187        H  0.12235728  0.38328509  0.04868929     0.18800
C188        C  0.13428130  0.27066337  0.15713102    -0.28600
N189        N  0.12581583  0.25006486  0.11903193     0.15600
C190        C  0.13425611  0.27115873  0.08115153    -0.28600
C191        C  0.23519571  0.36652229  0.15804457    -0.28900
N192        N  0.25509052  0.37108773  0.12005866     0.16100
H193        H  0.24338222  0.36463482  0.19266994     0.18700
C194        C  0.23520036  0.36754468  0.08226404    -0.28900
H195        H  0.24330614  0.36654090  0.04742004     0.18700
H196        H  0.13105408  0.26188330  0.04609793     0.18700
H197        H  0.12223636  0.38099896  0.19462951     0.18800
H198        H  0.13114809  0.26099565  0.19206362     0.18700
C199        C  0.16716210  0.34003810  0.26731582    -0.10700
C200        C  0.16601627  0.34064932  0.22365738    -0.12200
C201        C  0.17112261  0.34414174  0.51786482    -0.10700
C202        C  0.17137421  0.34547033  0.47417709    -0.12200
C203        C  0.11145465  0.21284688  0.11966533    -0.10700
C204        C  0.09867779  0.18094408  0.12408919    -0.12200
C205        C  0.28983986  0.37572395  0.12048326    -0.10700
C206        C  0.32031716  0.38214337  0.12601957    -0.12200
C207        C  0.07967716  0.42260313  0.12162413    -0.10700
C208        C  0.09668905  0.40662067  0.12232153    -0.12200
C209        C  0.10239817  0.18207377  0.39355847    -0.10700
C210        C  0.11491492  0.21360526  0.38536675    -0.12200
C211        C  0.30043447  0.41020203  0.36594711    -0.10700
C212        C  0.33286103  0.42625532  0.36712948    -0.12200
C213        C  0.08204750  0.41958876  0.35907937    -0.10700
C214        C  0.09744447  0.40242491  0.36323095    -0.12200
C215        C  0.43356944  0.57275054  0.33913268    -0.15900
C216        C  0.44848937  0.59327963  0.36971366     0.08100
C217        C  0.41867324  0.05753159  0.35087917     0.10000
C218        C  0.44624695  0.06893919  0.37185640    -0.16800
C219        C  0.41938563  0.44509914  0.04434946    -0.15900
C220        C  0.39644359  0.45310621  0.03742687     0.08100
C221        C  0.39738573  0.02721046  0.07862714     0.10000
C222        C  0.42379072  0.04824232  0.09877291    -0.16800
C223        C  0.39808016  0.10934003  0.22984754    -0.10700
C224        C  0.41290946  0.09152729  0.22543911    -0.12200
C225        C  0.39097242  0.30739654  0.25342832    -0.10700
C226        C  0.40718507  0.33995527  0.25786103    -0.12200
C227        C  0.20149160  0.10654100  0.23970000    -0.10700
C228        C  0.16902124  0.08867321  0.23921121    -0.12200
C229        C  0.42531244  0.09327516  0.48806636    -0.10700
C230        C  0.40809750  0.10932180  0.49055476    -0.12200
C231        C  0.41504391  0.32957515  0.45274190    -0.10700
C232        C  0.40058703  0.29895066  0.46588864    -0.12200
C233        C  0.20379366  0.10116282  0.49475680    -0.10700
C234        C  0.17132452  0.08267656  0.49352323    -0.12200
C235        C  0.33225795  0.17037342  0.34249879    -0.10700
C236        C  0.33229472  0.16760968  0.38592021    -0.12200
C237        C  0.33284701  0.17729227  0.13571251    -0.10700
C238        C  0.33285286  0.17410004  0.09204316    -0.12200
C239        C  0.33656212  0.17317290  0.53793133     0.32600
C240        C  0.32587748  0.16056489  0.94024749     0.32600
C241        C  0.35551407  0.15362799  0.51480068    -0.03600
C242        C  0.29895818  0.15307180  0.51502923    -0.04400
C243        C  0.35357702  0.20852899  0.50924406    -0.04300
C244        C  0.34449144  0.14264462  0.96675033    -0.03600
C245        C  0.29043428  0.14632853  0.96748527    -0.04400
C246        C  0.34653358  0.19819526  0.95895756    -0.04300
C247        C  0.36199179  0.12416893  0.95419138    -0.29700
N248        N  0.37558956  0.11657262  0.99222159     0.16800
C249        C  0.37628845  0.13828689  0.52870650    -0.29700
H250        H  0.38335969  0.13596551  0.56375674     0.18800
C251        C  0.25442111  0.12746258  0.95701248    -0.28600
N252        N  0.24159553  0.12206369  0.49342524     0.15600
C253        C  0.26391211  0.13520559  0.53027257    -0.28600
C254        C  0.36588403  0.23019839  0.93785204    -0.28900
N255        N  0.38186935  0.26219369  0.47528729     0.16100
H256        H  0.36926317  0.23482377  0.90077281     0.18700
C257        C  0.37289644  0.24507339  0.51678666    -0.28900
H258        H  0.38011192  0.25807631  0.54981740     0.18700
H259        H  0.25536611  0.13170219  0.56568606     0.18700
H260        H  0.36525242  0.11740762  0.91946344     0.18800
H261        H  0.24312071  0.11891997  0.92311716     0.18700
C262        C  0.32901248  0.16768825  0.78866516     0.32600
C263        C  0.33204965  0.17521931  0.69124313     0.32600
C264        C  0.34910656  0.15164246  0.76170652    -0.03600
C265        C  0.29303164  0.15123457  0.76232390    -0.04400
C266        C  0.34713350  0.20627515  0.76922853    -0.04300
C267        C  0.35049656  0.15551146  0.71343551    -0.03600
C268        C  0.29419655  0.15473675  0.71384619    -0.04400
C269        C  0.34894686  0.21046464  0.72071082    -0.04300
C270        C  0.36883420  0.13889814  0.69689011    -0.29700
N271        N  0.37867729  0.12515311  0.73264645     0.16800
C272        C  0.36680819  0.13267626  0.77223207    -0.29700
H273        H  0.37052096  0.12474951  0.80621788     0.18800
C274        C  0.25874428  0.13836672  0.69935104    -0.28600
N275        N  0.23679457  0.12548497  0.73659125     0.15600
C276        C  0.25748424  0.13319834  0.77485298    -0.29400
C277        C  0.36550012  0.24720249  0.71313662    -0.28900
N278        N  0.37344413  0.26489772  0.75429338     0.16100
H279        H  0.37109170  0.25997863  0.67995765     0.18700
C280        C  0.36226429  0.24002459  0.78814587    -0.28900
H281        H  0.36475050  0.24611644  0.82481318     0.18700
H282        H  0.24742549  0.12631241  0.80949592     0.18700
H283        H  0.37439220  0.13676631  0.66119610     0.18800
H284        H  0.24965707  0.13620595  0.66419812     0.18700
C285        C  0.06945547  0.44274361  0.84573644     0.45000
N286        N  0.03173142  0.46212883  0.85230919     0.03900
C287        C  0.06277562  0.12525739  0.94715296    -0.03900
H288        H  0.10467546  0.06968773  0.54676258     0.09400
C289        C  0.50019245  0.44593167  0.50974770    -0.04300
Co290      Co  0.05145988  0.03426208  0.88917765     0.74200
N291        N  0.06798204  0.04111891  0.98867561    -0.23500
Co292      Co  0.02078588  0.04544000  0.98611762     0.74100
C293        C  0.51325942  0.45074232  0.55567877     0.45100
N294        N  0.45072343  0.41404807  0.93534449     0.03500
N295        N  0.99083297  0.00383218  0.03081906     0.03700
N296        N  0.08816668  0.11747989  0.88305551    -0.44300
H297        H  0.11586968  0.49595405  0.86785230     0.09400
N298        N  0.07913737  0.03563568  0.94891490     0.03900
N299        N  0.47282180  0.04550581  0.98043398     0.03700
C300        C  0.43219284  0.06180837  0.98167157     0.45300
N301        N  0.46286395  0.41170538  0.89491013    -0.22900
C302        C  0.99799191  0.06285140  0.87879816    -0.03800
N303        N  0.03446061  0.43333227  0.84313591    -0.44000
N304        N  0.46770338  0.07342632  0.98623410    -0.44300
C305        C  0.46170339  0.04769286  0.88646044     0.45100
N306        N  0.06878169  0.08715651  0.90535475     0.03900
N307        N  0.43333902  0.45719069  0.86488466    -0.23000
N308        N  0.06297265  0.48942659  0.86236379    -0.23400
N309        N  0.42397782  0.45975441  0.90697897     0.03600
H310        H  0.39960850  0.43957634  0.80348709     0.09500
H311        H  0.38799194  0.00520996  0.96626731     0.09500
N312        N  0.05281974  0.09066475  0.94236294    -0.23500
N313        N  0.49290246  0.46083901  0.00519522    -0.23100
N314        N  0.50980461  0.51251605  0.83390493     0.03900
C315        C  0.12658011  0.05705746  0.99128018     0.45300
C316        C  0.45458864  0.37749313  0.88840200    -0.04400
N317        N  0.44229477  0.01532332  0.97420858    -0.23100
H318        H  0.48934357  0.42137681  0.49119477     0.09500
N319        N  0.11343930  0.04495375  0.94908461    -0.44300
H320        H  0.46052828  0.36688412  0.85821264     0.09500
C321        C  0.37420872  0.44036108  0.87117496     0.45200
C322        C  0.08819044  0.47980481  0.85856592    -0.03900
Co323      Co  0.48524807  0.45935281  0.85724620     0.73800
N324        N  0.43317749  0.38320485  0.95652877    -0.44000
C325        C  0.08606667  0.14296026  0.90789462     0.45400
N326        N  0.49651011  0.53220993  0.85023441    -0.44000
Co327      Co  0.45648375  0.46244484  0.95837368     0.73900
C328        C  0.41573446  0.02370729  0.97254097    -0.04400
C329        C  0.09627982  0.05504450  0.01765256    -0.03900
N330        N  0.00459053  0.03492743  0.88113047    -0.23500
N331        N  0.97085119  0.00467316  0.54987035    -0.44200
H332        H  0.05474674  0.13659866  0.97463258     0.09400
C333        C  0.40269129  0.44436703  0.83973998    -0.04300
Cl334      Cl  0.49490321  0.99517973  0.92440300    -0.47300
C335        C  0.43511700  0.35886098  0.93023315     0.45200
H336        H  0.01666690  0.08975733  0.86949652     0.09400
N337        N  0.38974265  0.44948896  0.91239996    -0.44000
C338        C  0.06999843  0.44131082  0.65033841     0.45000
N339        N  0.02480275  0.44960527  0.65789039     0.03900
C340        C  0.05366072  0.12693043  0.67327176    -0.03900
H341        H  0.10121553  0.08595671  0.78745919     0.09400
C342        C  0.43240421  0.51824464  0.80424095    -0.04300
Co343      Co  0.04554153  0.03272624  0.63487656     0.74200
N344        N  0.06876899  0.05342125  0.73138187    -0.23500
Co345      Co  0.01967582  0.05469873  0.72770772     0.74100
C346        C  0.44574486  0.55610531  0.80543137     0.45100
N347        N  0.44426102  0.43003515  0.76502739     0.03500
N348        N  0.49727338  0.02220807  0.78111319     0.03700
N349        N  0.07729989  0.11444415  0.61098063    -0.44300
H350        H  0.10673289  0.49951862  0.63210635     0.09400
N351        N  0.07779682  0.04339047  0.69310144     0.03900
N352        N  0.47432094  0.05463430  0.71711016     0.03700
C353        C  0.43226839  0.06860548  0.71555153     0.45300
N354        N  0.46862022  0.42554073  0.74336396    -0.22900
C355        C  0.98508456  0.05468380  0.61632674    -0.03800
N356        N  0.03481588  0.42491548  0.65986228    -0.44000
N357        N  0.46796752  0.08190760  0.71810346    -0.44300
C358        C  0.45304354  0.04121726  0.62072018     0.45100
N359        N  0.06016749  0.08632383  0.63820094     0.03900
N360        N  0.41574973  0.40790736  0.67031375    -0.23000
N361        N  0.05159829  0.48139534  0.64813952    -0.23400
N362        N  0.40114775  0.42425486  0.69267475     0.03600
H363        H  0.39277027  0.36413512  0.62199233     0.09500
H364        H  0.38896986  0.01010304  0.71298450     0.09500
N365        N  0.04578376  0.09290390  0.67442816    -0.23500
N366        N  0.45480859  0.51227923  0.77757257    -0.23100
N367        N  0.46221596  0.47645926  0.64621351     0.03900
C368        C  0.12722447  0.06852484  0.73121097     0.45300
C369        C  0.46405773  0.39289749  0.75156790    -0.04400
N370        N  0.44445770  0.02325357  0.71590673    -0.23100
H371        H  0.40455978  0.49962306  0.80835715     0.09500
N372        N  0.11192872  0.05212969  0.69158127    -0.44300
H373        H  0.47439465  0.38027230  0.72891902     0.09500
C374        C  0.35651573  0.38208798  0.65878438     0.45200
C375        C  0.08102352  0.47839109  0.64251649    -0.03900
Co376      Co  0.47190443  0.43859719  0.67578423     0.73800
N377        N  0.41981576  0.39863982  0.78217534    -0.44000
C378        C  0.07412698  0.14111868  0.63140750     0.45400
N379        N  0.43016101  0.46929296  0.63130190    -0.44000
Co380      Co  0.43198920  0.46944945  0.73345410     0.73900
C381        C  0.41675947  0.02996219  0.71332585    -0.04400
C382        C  0.09852382  0.07000647  0.75763786    -0.03900
N383        N  0.99610568  0.03080228  0.62834885    -0.23500
N384        N  0.96975420  0.02812275  0.79806515    -0.44200
H385        H  0.04699802  0.14038006  0.69948923     0.09400
C386        C  0.38932686  0.38067427  0.64694997    -0.04300
Cl387      Cl  0.49961579  0.00194813  0.68092438    -0.47300
C388        C  0.43051130  0.37386365  0.77549738     0.45200
H389        H  0.00153830  0.08064544  0.60184761     0.09400
N390        N  0.36639858  0.40954401  0.68735966    -0.44000
C391        C  0.17106659  0.33894462  0.82183581     0.32600
C392        C  0.17170789  0.34457745  0.91916515     0.32600
C393        C  0.15092779  0.35696371  0.84297146    -0.03600
C394        C  0.15503548  0.30375128  0.85008613    -0.04400
C395        C  0.20796924  0.36012356  0.84548983    -0.04300
C396        C  0.15104514  0.35980979  0.89138658    -0.03600
C397        C  0.15550643  0.30695600  0.89849422    -0.04400
C398        C  0.20863285  0.36298963  0.89409223    -0.04300
C399        C  0.13130505  0.37660189  0.90123525    -0.29700
N400        N  0.11949125  0.38370485  0.86114129     0.16800
C401        C  0.13132237  0.37198015  0.82565294    -0.29700
H402        H  0.12618731  0.37438132  0.78975972     0.18800
C403        C  0.14091010  0.27323573  0.91664107    -0.28600
N404        N  0.13153156  0.24955090  0.88180749     0.15600
C405        C  0.13994364  0.26767062  0.84118305    -0.28600
C406        C  0.24449292  0.38107442  0.90637374    -0.28900
N407        N  0.26495258  0.38904103  0.86775962     0.16100
H408        H  0.25488896  0.38732078  0.94099825     0.18700
C409        C  0.24295713  0.37642051  0.83074830    -0.28900
H410        H  0.25175461  0.37823426  0.79560510     0.18700
H411        H  0.13564016  0.25557054  0.80763883     0.18700
H412        H  0.12614814  0.38336609  0.93502629     0.18800
H413        H  0.13758066  0.26644197  0.95274588     0.18700
C414        C  0.17072923  0.34203042  0.57231648     0.32600
C415        C  0.17021057  0.33843533  0.67004637     0.32600
C416        C  0.15578864  0.36332701  0.59905088    -0.03600
C417        C  0.14882891  0.30482410  0.59486682    -0.04400
C418        C  0.20717086  0.35469045  0.59720350    -0.04300
C419        C  0.15587651  0.36138920  0.64765345    -0.03600
C420        C  0.14860340  0.30323173  0.64358831    -0.04400
C421        C  0.20656106  0.35304573  0.64601851    -0.04300
C422        C  0.13947204  0.37958195  0.66415931    -0.29700
N423        N  0.12911656  0.39237912  0.62816432     0.16800
C424        C  0.13873457  0.38279520  0.58835333    -0.29700
H425        H  0.13262035  0.38839656  0.55426901     0.18800
C426        C  0.13190156  0.26789827  0.65556948    -0.28600
N427        N  0.12204189  0.24802949  0.61673630     0.15600
C428        C  0.13220504  0.27004974  0.57966120    -0.28600
C429        C  0.23849083  0.35609019  0.66016223    -0.28900
N430        N  0.25858673  0.35952581  0.62285083     0.16100
H431        H  0.24569004  0.35361299  0.69512162     0.18700
C432        C  0.23990491  0.35830329  0.58434988    -0.28900
H433        H  0.24852924  0.35789090  0.54963221     0.18700
H434        H  0.12924309  0.26146678  0.54429410     0.18700
H435        H  0.13411421  0.38211014  0.69982751     0.18800
H436        H  0.12870553  0.25741541  0.69006724     0.18700
C437        C  0.17058351  0.33710038  0.76772978    -0.10700
C438        C  0.17024453  0.33710827  0.72421192    -0.12200
C439        C  0.16735484  0.34443703  0.01694337    -0.10700
C440        C  0.17006339  0.34557389  0.97343883    -0.12200
C441        C  0.10636276  0.21064732  0.61596817    -0.10700
C442        C  0.09257651  0.17854518  0.61922037    -0.12200
C443        C  0.29281637  0.36259302  0.62559787    -0.10700
C444        C  0.32256295  0.36791821  0.63526894    -0.12200
C445        C  0.09061691  0.42378771  0.64011755    -0.10700
C446        C  0.10858231  0.40964389  0.63280295    -0.12200
C447        C  0.10245586  0.18057284  0.89575880    -0.10700
C448        C  0.11589593  0.21231808  0.88794450    -0.12200
C449        C  0.30282345  0.40641534  0.86603783    -0.10700
C450        C  0.33541349  0.42149248  0.86539811    -0.12200
C451        C  0.08387978  0.41864289  0.85128858    -0.10700
C452        C  0.09958208  0.40177284  0.85639809    -0.12200
C453        C  0.44394854  0.57560939  0.84412317    -0.15900
C454        C  0.46386019  0.59570678  0.87237047     0.08100
C455        C  0.41310350  0.05091106  0.84656609     0.10000
C456        C  0.43946673  0.06181190  0.86996777    -0.16800
C457        C  0.47953991  0.42735104  0.57823921    -0.15900
C458        C  0.44810877  0.41841283  0.57446953     0.08100
C459        C  0.40131849  0.02357467  0.57310587     0.10000
C460        C  0.42673112  0.04509457  0.59451117    -0.16800
C461        C  0.39752466  0.10574092  0.72846966    -0.10700
C462        C  0.41352795  0.08898863  0.72313892    -0.12200
C463        C  0.39082026  0.30264980  0.76157285    -0.10700
C464        C  0.40681953  0.33500606  0.76889147    -0.12200
C465        C  0.19878707  0.10686881  0.73624594    -0.10700
C466        C  0.16611110  0.09024084  0.73601967    -0.12200
C467        C  0.41367882  0.08291053  0.98795911    -0.10700
C468        C  0.39637500  0.09873129  0.99147012    -0.12200
C469        C  0.41876205  0.32183316  0.94380676    -0.10700
C470        C  0.40236894  0.29162208  0.95824916    -0.12200
C471        C  0.19734756  0.09913505  0.99925347    -0.10700
C472        C  0.16487260  0.08052081  0.99882127    -0.12200
C473        C  0.32674436  0.16286313  0.84259921    -0.10700
C474        C  0.32513095  0.15970330  0.88598718    -0.12200
C475        C  0.33429811  0.17682995  0.63643573    -0.10700
C476        C  0.33625392  0.17584445  0.59266719    -0.12200
C477        C  0.34016516  0.66463437  0.02937931     0.32600
C478        C  0.33661828  0.66482735  0.43165818     0.32600
C479        C  0.36074653  0.64623937  0.00612627    -0.03600
C480        C  0.30357577  0.64360830  0.00632354    -0.04400
C481        C  0.35556830  0.69984474  0.00149500    -0.04300
C482        C  0.35920334  0.64962175  0.45750415    -0.03600
C483        C  0.30134662  0.64620046  0.45926579    -0.04400
C484        C  0.35344049  0.70235706  0.45279583    -0.04300
C485        C  0.37900107  0.63258886  0.44611335    -0.29700
N486        N  0.39244021  0.62508724  0.48499848     0.16800
C487        C  0.38063769  0.62961962  0.02004307    -0.29700
H488        H  0.38650751  0.62620947  0.05526446     0.18800
C489        C  0.26545204  0.62549954  0.44947311    -0.28600
N490        N  0.24697703  0.61057649  0.98696729     0.15600
C491        C  0.26949265  0.62463570  0.02287470    -0.28600
C492        C  0.36856090  0.73616550  0.43491747    -0.28900
N493        N  0.37930535  0.75433277  0.97109420     0.16100
H494        H  0.37160494  0.74315710  0.39887067     0.18700
C495        C  0.37127181  0.73580022  0.01130438    -0.28900
H496        H  0.37663010  0.74755508  0.04514407     0.18700
H497        H  0.26162384  0.62092670  0.05859005     0.18700
H498        H  0.38301414  0.62591636  0.41168240     0.18800
H499        H  0.25366056  0.61735840  0.41574667     0.18700
C500        C  0.32464402  0.66816477  0.27893962     0.32600
C501        C  0.32528269  0.67059278  0.18036514     0.32600
C502        C  0.33990958  0.64758926  0.25280116    -0.03600
C503        C  0.28750652  0.65379277  0.25369486    -0.04400
C504        C  0.34551761  0.70526556  0.25538856    -0.04300
C505        C  0.33998778  0.64913176  0.20442380    -0.03600
C506        C  0.28784596  0.65492873  0.20450207    -0.04400
C507        C  0.34585944  0.70633409  0.20647110    -0.04300
C508        C  0.35356679  0.62865089  0.18841775    -0.29700
N509        N  0.36166649  0.61460772  0.22474067     0.16800
C510        C  0.35380839  0.62570440  0.26434531    -0.29700
H511        H  0.35765493  0.61823385  0.29853467     0.18800
C512        C  0.25248483  0.64164479  0.19068065    -0.28600
N513        N  0.23084178  0.63265757  0.22831219     0.15600
C514        C  0.25190638  0.63989034  0.26652787    -0.29400
C515        C  0.36368903  0.74166082  0.19398436    -0.28900
N516        N  0.37410893  0.76191405  0.23254464     0.16100
H517        H  0.36811275  0.75191534  0.15927682     0.18700
C518        C  0.36327604  0.74021574  0.26996066    -0.28900
H519        H  0.36736949  0.74918952  0.30520787     0.18700
H520        H  0.24213442  0.63556263  0.30140279     0.18700
H521        H  0.35713752  0.62395383  0.15281698     0.18800
H522        H  0.24327030  0.63897313  0.15552771     0.18700
C523        C  0.06185304  0.94770153  0.34015326     0.45000
N524        N  0.02139331  0.96397975  0.34790358     0.03900
C525        C  0.06977522  0.62587038  0.46019047    -0.03900
H526        H  0.11300242  0.55678625  0.05040561     0.09400
C527        C  0.44320391  0.94938118  0.03903791    -0.04300
Co528      Co  0.06952459  0.53961035  0.39187600     0.74200
N529        N  0.08470075  0.54410594  0.49071233    -0.23500
Co530      Co  0.03663877  0.54711170  0.49479599     0.74100
C531        C  0.43577023  0.97587446  0.05540469     0.45100
N532        N  0.44439459  0.92121816  0.45018016     0.03500
N533        N  0.01394869  0.49947655  0.53066520     0.03700
N534        N  0.09741531  0.62113687  0.39719257    -0.44300
H535        H  0.10612448  0.00323595  0.35832386     0.09400
N536        N  0.09494041  0.53787779  0.45068170     0.03900
N537        N  0.48812559  0.54946509  0.49259892     0.03700
C538        C  0.44821048  0.56758690  0.49279473     0.45300
N539        N  0.45659000  0.91824597  0.41026566    -0.22900
C540        C  0.04595582  0.57390377  0.33236551    -0.03800
N541        N  0.02647444  0.93629935  0.34055434    -0.44000
N542        N  0.48361956  0.57794944  0.49822285    -0.44300
C543        C  0.51263192  0.57068684  0.36107105     0.45100
N544        N  0.07767118  0.58970652  0.41660209     0.03900
N545        N  0.41481877  0.94708984  0.37579670    -0.23000
N546        N  0.05215189  0.99376731  0.35234986    -0.23400
N547        N  0.40805333  0.95656807  0.41589889     0.03600
H548        H  0.37883837  0.91354233  0.32228197     0.09500
H549        H  0.40402514  0.51198718  0.47441781     0.09500
N550        N  0.06157231  0.59185460  0.45385366    -0.23500
N551        N  0.48575970  0.97430536  0.51303270    -0.23100
N552        N  0.48042656  0.01025562  0.38685750     0.03900
C553        C  0.14074045  0.55291499  0.49350252     0.45300
C554        C  0.44940882  0.88441423  0.40512468    -0.04400
N555        N  0.45776531  0.52069430  0.48328327    -0.23100
H556        H  0.42192719  0.92434389  0.02828387     0.09500
N557        N  0.12772899  0.54289587  0.45102092    -0.44300
H558        H  0.45180391  0.87278116  0.37344340     0.09500
C559        C  0.35652446  0.92912059  0.38345260     0.45200
C560        C  0.07882502  0.98584916  0.34835876    -0.03900
Co561      Co  0.46845352  0.95759255  0.36090794     0.73800
N562        N  0.42919036  0.89103637  0.47367643    -0.44000
C563        C  0.09342003  0.64524134  0.42198978     0.45400
N564        N  0.45489050  0.01945920  0.39008330    -0.44000
Co565      Co  0.44718305  0.96987734  0.46610101     0.73900
C566        C  0.43155041  0.52962092  0.48294648    -0.04400
C567        C  0.11219690  0.55398551  0.52019213    -0.03900
N568        N  0.04061196  0.54066389  0.33561484    -0.23500
N569        N  0.98352072  0.48527471  0.05763736    -0.44200
H570        H  0.06103374  0.63586199  0.48848254     0.09400
C571        C  0.38336991  0.92860058  0.35351651    -0.04300
Cl572      Cl  0.51044436  0.50464510  0.42791724    -0.47300
C573        C  0.43189996  0.86661618  0.44779615     0.45200
H574        H  0.07127767  0.59666417  0.32606630     0.09400
N575        N  0.37365371  0.94577873  0.42233823    -0.44000
C576        C  0.05742071  0.94292404  0.09689439     0.45000
N577        N  0.01676635  0.95910488  0.10169637     0.03900
C578        C  0.03737479  0.62184184  0.13769699    -0.03900
H579        H  0.09578873  0.61482036  0.25796519     0.09400
C580        C  0.44678601  0.97488327  0.29017175    -0.04300
Co581      Co  0.03585472  0.52768615  0.13372280     0.74200
N582        N  0.06082778  0.56796253  0.21884770    -0.23500
Co583      Co  0.00723186  0.56119179  0.20756725     0.74100
C584        C  0.44173156  0.00342138  0.30413086     0.45100
N585        N  0.44453118  0.92480674  0.22216894     0.03500
N586        N  0.48220774  0.54627698  0.27000402     0.03700
N587        N  0.06989735  0.60648600  0.09150690    -0.44300
H588        H  0.10164396  0.99973656  0.10893613     0.09400
N589        N  0.06961892  0.55047480  0.18900755     0.03900
N590        N  0.45404652  0.55149393  0.19316518     0.03700
C591        C  0.40776421  0.55789577  0.18920741     0.45300
N592        N  0.45842235  0.92005701  0.18478156    -0.22900
C593        C  0.96717564  0.53414059  0.10132903    -0.03800
N594        N  0.02196985  0.93116110  0.09863051    -0.44000
N595        N  0.44346530  0.57516073  0.18628014    -0.44300
C596        C  0.43255717  0.51712298  0.10255360     0.45100
N597        N  0.04709871  0.57922187  0.11714749     0.03900
N598        N  0.41140035  0.93541519  0.13675546    -0.23000
N599        N  0.04741708  0.98948471  0.10324495    -0.23400
N600        N  0.40307285  0.94884517  0.17236523     0.03600
H601        H  0.37826882  0.89772630  0.08463243     0.09500
H602        H  0.37067345  0.50031349  0.20965974     0.09500
N603        N  0.02895104  0.58824987  0.14530534    -0.23500
N604        N  0.48012823  0.98977977  0.27402625    -0.23100
N605        N  0.46990809  0.00633855  0.13683303     0.03900
C606        C  0.12044678  0.58492644  0.22083671     0.45300
C607        C  0.45141387  0.88624209  0.18263590    -0.04400
N608        N  0.42657951  0.51906024  0.20108495    -0.23100
H609        H  0.42609844  0.94816744  0.28405827     0.09500
N610        N  0.10396973  0.55976247  0.18880823    -0.44300
H611        H  0.45358721  0.87333055  0.15203197     0.09500
C612        C  0.35253001  0.91556012  0.14061121     0.45200
C613        C  0.07423222  0.98162742  0.10024887    -0.03900
Co614      Co  0.46771581  0.95609227  0.13325806     0.73800
N615        N  0.42735790  0.89516689  0.24665972    -0.44000
C616        C  0.06438431  0.63431327  0.10248057     0.45400
N617        N  0.44143218  0.01053317  0.13511692    -0.44000
Co618      Co  0.44221505  0.97312803  0.22388557     0.73900
C619        C  0.39644858  0.52088553  0.19850791    -0.04400
C620        C  0.09192504  0.59158830  0.23953177    -0.03900
N621        N  0.98288926  0.51804406  0.12511194    -0.23500
N622        N  0.97787016  0.56907579  0.28381227    -0.44200
H623        H  0.03090802  0.63754928  0.16058924     0.09400
C624        C  0.38073689  0.91316681  0.11484564    -0.04300
Cl625      Cl  0.49054520  0.50565655  0.18759397    -0.47300
C626        C  0.43148965  0.86981361  0.22437822     0.45200
H627        H  0.98099303  0.55793015  0.08120617     0.09400
N628        N  0.36846999  0.93737350  0.17634385    -0.44000
C629        C  0.15433647  0.83311623  0.31801513     0.32600
C630        C  0.15505408  0.83909339  0.41550271     0.32600
C631        C  0.13552844  0.85282779  0.33921234    -0.03600
C632        C  0.13697791  0.79787402  0.34677543    -0.04400
C633        C  0.19155220  0.85306765  0.34236466    -0.04300
C634        C  0.13578508  0.85590208  0.38771691    -0.03600
C635        C  0.13745422  0.80166661  0.39514919    -0.04400
C636        C  0.19146612  0.85570709  0.39091873    -0.04300
C637        C  0.11883296  0.87560833  0.39732832    -0.29700
N638        N  0.10849945  0.88442545  0.35717918     0.16800
C639        C  0.11852315  0.87069386  0.32183207    -0.29700
H640        H  0.11438442  0.87403747  0.28588393     0.18800
C641        C  0.12585190  0.76899179  0.41465738    -0.28600
N642        N  0.11843510  0.74497066  0.38106146     0.15600
C643        C  0.12529092  0.76191440  0.33952649    -0.28600
C644        C  0.22641047  0.87218227  0.40550786    -0.28900
N645        N  0.24797409  0.87988023  0.36848700     0.16100
H646        H  0.23550168  0.87774224  0.44075121     0.18700
C647        C  0.22725707  0.86837850  0.32989312    -0.28900
H648        H  0.23731985  0.87043596  0.29539872     0.18700
H649        H  0.12367502  0.74946783  0.30678825     0.18700
H650        H  0.11496416  0.88353219  0.43108289     0.18800
H651        H  0.12484973  0.76337607  0.45100773     0.18700
C652        C  0.15441341  0.83567456  0.06722768     0.32600
C653        C  0.15137675  0.83155585  0.16495191     0.32600
C654        C  0.13325461  0.85131167  0.09179872    -0.03600
C655        C  0.13778725  0.79828846  0.08898184    -0.04400
C656        C  0.19036087  0.85420966  0.09387897    -0.04300
C657        C  0.13164354  0.84965909  0.14040911    -0.03600
C658        C  0.13623412  0.79580917  0.13762007    -0.04400
C659        C  0.18863943  0.85212710  0.14249868    -0.04300
C660        C  0.11386320  0.86816404  0.15313336    -0.29700
N661        N  0.10488328  0.88040203  0.11461299     0.16800
C662        C  0.11660341  0.87019828  0.07743346    -0.29700
H663        H  0.11420389  0.87701564  0.04228438     0.18800
C664        C  0.12364513  0.76008689  0.14760544    -0.28600
N665        N  0.11778997  0.74159502  0.10755923     0.15600
C666        C  0.12632501  0.76463162  0.07197441    -0.28600
C667        C  0.22316831  0.86595440  0.15838697    -0.28900
N668        N  0.24563199  0.87621148  0.12196349     0.16100
H669        H  0.23121367  0.86685316  0.19384420     0.18700
C670        C  0.22609871  0.86914640  0.08261803    -0.28900
H671        H  0.23690497  0.87298772  0.04830541     0.18700
H672        H  0.12495033  0.75751071  0.03621089     0.18700
H673        H  0.10879145  0.87316161  0.18792000     0.18800
H674        H  0.11964687  0.74855489  0.18156835     0.18700
C675        C  0.15307226  0.83085174  0.26341128    -0.10700
C676        C  0.15159556  0.83041074  0.21962144    -0.12200
C677        C  0.15619439  0.83823252  0.51317199    -0.10700
C678        C  0.15579161  0.83995876  0.46971134    -0.12200
C679        C  0.10394089  0.70442426  0.10275753    -0.10700
C680        C  0.08943773  0.67218964  0.09898287    -0.12200
C681        C  0.28285121  0.88923193  0.12504872    -0.10700
C682        C  0.31473442  0.90051155  0.13006010    -0.12200
C683        C  0.07410891  0.92067457  0.10653894    -0.10700
C684        C  0.08812650  0.90197425  0.11216765    -0.12200
C685        C  0.10143543  0.67983919  0.40416893    -0.10700
C686        C  0.10889254  0.70932479  0.39060916    -0.12200
C687        C  0.28569240  0.89664597  0.37115914    -0.10700
C688        C  0.31796856  0.91128762  0.37627870    -0.12200
C689        C  0.07788385  0.92465257  0.34713018    -0.10700
C690        C  0.09177525  0.90585378  0.35235289    -0.12200
C691        C  0.40957517  0.00556735  0.31128119    -0.15900
C692        C  0.40036770  0.02600074  0.32559914     0.08100
C693        C  0.48306499  0.60575376  0.38686434     0.10000
C694        C  0.50550637  0.59721894  0.38045384    -0.16800
C695        C  0.40190111  0.97570625  0.05488466    -0.15900
C696        C  0.38700037  0.99282367  0.06208421     0.08100
C697        C  0.38994117  0.48169369  0.04531170     0.10000
C698        C  0.40637849  0.50850748  0.06720874    -0.16800
C699        C  0.37634063  0.59243767  0.21945638    -0.10700
C700        C  0.38963206  0.57513190  0.20735275    -0.12200
C701        C  0.39286164  0.79946008  0.23306173    -0.10700
C702        C  0.40965481  0.83170749  0.23122948    -0.12200
C703        C  0.19274826  0.61797585  0.22769235    -0.10700
C704        C  0.15990586  0.60451357  0.22624075    -0.12200
C705        C  0.43063189  0.59052468  0.49017302    -0.10700
C706        C  0.41339978  0.60693341  0.48750779    -0.12200
C707        C  0.41319826  0.82873489  0.45712751    -0.10700
C708        C  0.39766613  0.79695100  0.46420730    -0.12200
C709        C  0.21016173  0.59482917  0.49504702    -0.10700
C710        C  0.17840512  0.57594079  0.49892644    -0.12200
C711        C  0.32763865  0.66609194  0.33363264    -0.10700
C712        C  0.33210262  0.66437225  0.37695362    -0.12200
C713        C  0.33014709  0.67007869  0.12598343    -0.10700
C714        C  0.33643339  0.66785930  0.08352712    -0.12200
C715        C  0.34058673  0.67056200  0.52966640     0.32600
C716        C  0.33755424  0.65996621  0.93135755     0.32600
C717        C  0.36092416  0.65246385  0.50650163    -0.03600
C718        C  0.30380859  0.64925623  0.50756319    -0.04400
C719        C  0.35549006  0.70553694  0.50128581    -0.04300
C720        C  0.35947112  0.64418512  0.95703891    -0.03600
C721        C  0.30180436  0.64107984  0.95796437    -0.04400
C722        C  0.35422699  0.69718924  0.95307187    -0.04300
C723        C  0.37855965  0.62672736  0.94451546    -0.29700
N724        N  0.39149318  0.61787039  0.98264953     0.16800
C725        C  0.38141323  0.63712678  0.52158142    -0.29700
H726        H  0.38762908  0.63478795  0.55702967     0.18800
C727        C  0.26604015  0.62028179  0.94722948    -0.28600
N728        N  0.24705567  0.61642940  0.48969858     0.15600
C729        C  0.27004513  0.63074194  0.52502649    -0.28600
C730        C  0.36895688  0.73111838  0.93570542    -0.28900
N731        N  0.37977983  0.75972922  0.46997998     0.16100
H732        H  0.37209482  0.73843186  0.89977029     0.18700
C733        C  0.37199612  0.74159742  0.51048622    -0.28900
H734        H  0.37828337  0.75371676  0.54411124     0.18700
H735        H  0.26269186  0.62758724  0.56092338     0.18700
H736        H  0.38239738  0.62065072  0.90968998     0.18800
H737        H  0.25481293  0.61245066  0.91317869     0.18700
C738        C  0.32917108  0.66651238  0.77921737     0.32600
C739        C  0.32846625  0.67134290  0.68135097     0.32600
C740        C  0.34208972  0.64452243  0.75089845    -0.03600
C741        C  0.29204884  0.65498729  0.75561058    -0.04400
C742        C  0.35171680  0.70399803  0.75707205    -0.04300
C743        C  0.34160955  0.64729822  0.70268742    -0.03600
C744        C  0.29149111  0.65727984  0.70671915    -0.04400
C745        C  0.35135015  0.70611336  0.70839719    -0.04300
C746        C  0.35290906  0.62523616  0.68448480    -0.29700
N747        N  0.36008203  0.60888533  0.71926829     0.16800
C748        C  0.35386142  0.62030428  0.75996716    -0.29700
H749        H  0.35723315  0.61139980  0.79346801     0.18800
C750        C  0.25594889  0.64625092  0.69481928    -0.28600
N751        N  0.23521532  0.63757527  0.73349147     0.15600
C752        C  0.25709668  0.64281731  0.77034268    -0.29400
C753        C  0.37009901  0.74160309  0.69689508    -0.28900
N754        N  0.38183285  0.76116232  0.73589014     0.16100
H755        H  0.37387550  0.75250056  0.66256757     0.18700
C756        C  0.37085515  0.73873149  0.77266538    -0.28900
H757        H  0.37541316  0.74707457  0.80816823     0.18700
H758        H  0.24831767  0.63814141  0.80567495     0.18700
H759        H  0.35533174  0.62097697  0.64837293     0.18800
H760        H  0.24601398  0.64474702  0.66024214     0.18700
C761        C  0.05901836  0.94491849  0.84352434     0.45000
N762        N  0.01855726  0.96137207  0.84956346     0.03900
C763        C  0.07088630  0.62151885  0.96110909    -0.03900
H764        H  0.11391119  0.56540050  0.55370650     0.09400
C765        C  0.45442559  0.95273345  0.53284962    -0.04300
Co766      Co  0.06931989  0.53670317  0.88793563     0.74200
N767        N  0.08362357  0.53685203  0.98719045    -0.23500
Co768      Co  0.03605362  0.54127371  0.99269451     0.74100
C769        C  0.44368708  0.97651993  0.55068920     0.45100
N770        N  0.43931884  0.91519175  0.94993743     0.03500
N771        N  0.00856425  0.49280648  0.02745723     0.03700
N772        N  0.09764109  0.61790982  0.89670627    -0.44300
H773        H  0.10309563  0.00030318  0.86291608     0.09400
N774        N  0.09437970  0.53274272  0.94618219     0.03900
N775        N  0.48774838  0.54211213  0.98663381     0.03700
C776        C  0.44820466  0.56044207  0.97990529     0.45300
N777        N  0.45202249  0.91244610  0.91023253    -0.22900
C778        C  0.04340154  0.57240380  0.83374217    -0.03800
N779        N  0.02366392  0.93365568  0.84259645    -0.44000
N780        N  0.48294448  0.57058007  0.99003012    -0.44300
C781        C  0.52155597  0.56621142  0.84658514     0.45100
N782        N  0.07817476  0.58613015  0.91546765     0.03900
N783        N  0.41036779  0.94061311  0.87185296    -0.23000
N784        N  0.04928225  0.99104858  0.85500519    -0.23400
N785        N  0.40253495  0.94924730  0.91179005     0.03600
H786        H  0.37626423  0.91063597  0.81483428     0.09500
H787        H  0.40623427  0.50558026  0.95613202     0.09500
N788        N  0.06273062  0.58753981  0.95370814    -0.23500
N789        N  0.47374288  0.96813760  0.01591467    -0.23100
N790        N  0.47427043  0.00362054  0.88606792     0.03900
C791        C  0.14026287  0.54673518  0.98859277     0.45300
C792        C  0.44629292  0.87900493  0.90586354    -0.04400
N793        N  0.45840673  0.51301485  0.97535244    -0.23100
H794        H  0.44930055  0.92853892  0.55018121     0.09500
N795        N  0.12735469  0.53825660  0.94584190    -0.44300
H796        H  0.44969042  0.86752415  0.87464103     0.09500
C797        C  0.35241049  0.92434533  0.87645074     0.45200
C798        C  0.07595889  0.98301773  0.85220946    -0.03900
Co799      Co  0.46411054  0.95146165  0.85997017     0.73800
N800        N  0.42521230  0.88518728  0.97385374    -0.44000
C801        C  0.09397442  0.64169989  0.92267173     0.45400
N802        N  0.44828418  0.01230242  0.88799764    -0.44000
Co803      Co  0.43944159  0.96276095  0.96436355     0.73900
C804        C  0.43290324  0.52270721  0.96827820    -0.04400
C805        C  0.11129028  0.54616140  0.01636331    -0.03900
N806        N  0.03958712  0.53961532  0.83375702    -0.23500
N807        N  0.02795628  0.48855334  0.56330932    -0.44200
H808        H  0.06190598  0.63094152  0.98976268     0.09400
C809        C  0.37978353  0.92383378  0.84739547    -0.04300
Cl810      Cl  0.51188386  0.49761379  0.92292588    -0.47300
C811        C  0.42913739  0.86118328  0.94868466     0.45200
H812        H  0.06771253  0.59620692  0.82695974     0.09400
N813        N  0.36830579  0.93947299  0.91638821    -0.44000
C814        C  0.05688539  0.94148237  0.60245431     0.45000
N815        N  0.01473882  0.95570259  0.60540023     0.03900
C816        C  0.03816738  0.61935999  0.63558362    -0.03900
H817        H  0.09650410  0.61977681  0.76097393     0.09400
C818        C  0.44792605  0.97248724  0.78828778    -0.04300
Co819      Co  0.05013386  0.52936074  0.63593834     0.74200
N820        N  0.06426956  0.57129649  0.72274026    -0.23500
Co821      Co  0.00998059  0.56269661  0.70700935     0.74100
C822        C  0.44175527  0.00060735  0.80056681     0.45100
N823        N  0.44719082  0.92309303  0.72089070     0.03500
N824        N  0.48087556  0.54388808  0.76489792     0.03700
N825        N  0.07592260  0.60658821  0.59751143    -0.44300
H826        H  0.09962702  0.99938606  0.61167931     0.09400
N827        N  0.07538520  0.55311824  0.69715391     0.03900
N828        N  0.44812392  0.53966553  0.68580803     0.03700
C829        C  0.40097338  0.54535812  0.68530474     0.45300
N830        N  0.46122738  0.91821307  0.68376717    -0.22900
C831        C  0.97965330  0.52199563  0.59443563    -0.03800
N832        N  0.02124183  0.92849843  0.60413896    -0.44000
N833        N  0.43629207  0.56233316  0.67795792    -0.44300
C834        C  0.43284211  0.48484923  0.59115461     0.45100
N835        N  0.05277967  0.57886511  0.62227708     0.03900
N836        N  0.41410437  0.93377436  0.63337430    -0.23000
N837        N  0.04463408  0.98681241  0.60570195    -0.23400
N838        N  0.40553468  0.94672345  0.66932462     0.03600
H839        H  0.38161518  0.89881014  0.57860837     0.09500
H840        H  0.36708553  0.48966167  0.71478876     0.09500
N841        N  0.03129623  0.58642065  0.64549793    -0.23500
N842        N  0.48149262  0.98807185  0.77277923    -0.23100
N843        N  0.47260843  0.00392346  0.63499359     0.03900
C844        C  0.12452591  0.58993254  0.73167310     0.45300
C845        C  0.45621774  0.88502209  0.68338969    -0.04400
N846        N  0.42194608  0.50765755  0.69831675    -0.23100
H847        H  0.42787762  0.94563750  0.78252486     0.09500
N848        N  0.10970228  0.56308333  0.70183007    -0.44300
H849        H  0.45956619  0.87192850  0.65375922     0.09500
C850        C  0.35516561  0.91541450  0.63563987     0.45200
C851        C  0.07236144  0.98018544  0.60391071    -0.03900
Co852      Co  0.47053017  0.95384521  0.63163417     0.73800
N853        N  0.43194770  0.89415717  0.74705293    -0.44000
C854        C  0.06774001  0.63315937  0.60402275     0.45400
N855        N  0.44403765  0.00783925  0.63200231    -0.44000
Co856      Co  0.44419378  0.97117776  0.72167058     0.73900
C857        C  0.39136189  0.50909462  0.69856214    -0.04400
C858        C  0.09432013  0.59642742  0.74451195    -0.03900
N859        N  0.99483967  0.51118836  0.62709548    -0.23500
N860        N  0.97865193  0.57312008  0.78273019    -0.44200
H861        H  0.02922494  0.63439317  0.65601621     0.09400
C862        C  0.38360618  0.91287941  0.61005515    -0.04300
Cl863      Cl  0.49005032  0.49800027  0.68784110    -0.47300
C864        C  0.43743080  0.86913950  0.72607760     0.45200
H865        H  0.99457759  0.54399908  0.57211844     0.09400
N866        N  0.37103509  0.93613127  0.67231570    -0.44000
C867        C  0.15087587  0.82959672  0.81794705     0.32600
C868        C  0.15276508  0.83640636  0.91539588     0.32600
C869        C  0.13129312  0.84853445  0.83947416    -0.03600
C870        C  0.13499471  0.79448603  0.84728936    -0.04400
C871        C  0.18798566  0.85061933  0.84131909    -0.04300
C872        C  0.13215094  0.85191499  0.88799107    -0.03600
C873        C  0.13600232  0.79870961  0.89567442    -0.04400
C874        C  0.18876615  0.85380276  0.88979397    -0.04300
C875        C  0.11552570  0.87182369  0.89809788    -0.29700
N876        N  0.10472074  0.88052421  0.85827417     0.16800
C877        C  0.11422493  0.86654989  0.82260551    -0.29700
H878        H  0.11000246  0.87011473  0.78675910     0.18800
C879        C  0.12566527  0.76633075  0.91565614    -0.28600
N880        N  0.11835337  0.74199548  0.88244156     0.15600
C881        C  0.12414554  0.75855230  0.84063134    -0.28600
C882        C  0.22403066  0.87051561  0.90297151    -0.28900
N883        N  0.24456501  0.87761858  0.86497156     0.16100
H884        H  0.23402025  0.87619449  0.93783452     0.18700
C885        C  0.22311340  0.86566045  0.82731331    -0.28900
H886        H  0.23231842  0.86683691  0.79250803     0.18700
H887        H  0.12220892  0.74587327  0.80798110     0.18700
H888        H  0.11253595  0.88027781  0.93193777     0.18800
H889        H  0.12525785  0.76116397  0.95205505     0.18700
C890        C  0.15541532  0.83540202  0.56727090     0.32600
C891        C  0.15237531  0.83047619  0.66489826     0.32600
C892        C  0.13515732  0.85180599  0.59246648    -0.03600
C893        C  0.13788726  0.79764241  0.58851294    -0.04400
C894        C  0.19149666  0.85287067  0.59378583    -0.04300
C895        C  0.13352860  0.84961653  0.64096789    -0.03600
C896        C  0.13635983  0.79494803  0.63713742    -0.04400
C897        C  0.18996287  0.85040789  0.64241143    -0.04300
C898        C  0.11594079  0.86810594  0.65453116    -0.29700
N899        N  0.10708348  0.88099909  0.61657096     0.16800
C900        C  0.11871097  0.87114780  0.57890706    -0.29700
H901        H  0.11607144  0.87819193  0.54396686     0.18800
C902        C  0.12422640  0.75933986  0.64711014    -0.28600
N903        N  0.11844312  0.74084657  0.60715237     0.15600
C904        C  0.12672184  0.76391151  0.57150351    -0.28600
C905        C  0.22479413  0.86397276  0.65770084    -0.28900
N906        N  0.24712548  0.87446653  0.62092995     0.16100
H907        H  0.23311938  0.86482831  0.69301471     0.18700
C908        C  0.22717224  0.86777703  0.58199885    -0.28900
H909        H  0.23767007  0.87211832  0.54748092     0.18700
H910        H  0.12576816  0.75686698  0.53575111     0.18700
H911        H  0.11064809  0.87238842  0.68954538     0.18800
H912        H  0.12087035  0.74793806  0.68107649     0.18700
C913        C  0.15072095  0.82782908  0.76332977    -0.10700
C914        C  0.15120410  0.82837710  0.71951699    -0.12200
C915        C  0.15503470  0.83761179  0.01306654    -0.10700
C916        C  0.15422557  0.83826063  0.96955668    -0.12200
C917        C  0.10544997  0.70370713  0.60303761    -0.10700
C918        C  0.09170027  0.67140221  0.60058513    -0.12200
C919        C  0.28463481  0.88792175  0.62293162    -0.10700
C920        C  0.31685757  0.89965372  0.62632219    -0.12200
C921        C  0.07497567  0.92027903  0.61082788    -0.10700
C922        C  0.08976553  0.90213321  0.61521287    -0.12200
C923        C  0.10184876  0.67673476  0.90584208    -0.10700
C924        C  0.10917306  0.70635426  0.89243258    -0.12200
C925        C  0.28205997  0.89335997  0.86555482    -0.10700
C926        C  0.31424795  0.90711749  0.86874066    -0.12200
C927        C  0.07486997  0.92160039  0.84971795    -0.10700
C928        C  0.08844726  0.90243277  0.85413267    -0.12200
C929        C  0.40874119  0.00152148  0.80531984    -0.15900
C930        C  0.39741451  0.02041952  0.81901371     0.08100
C931        C  0.49938504  0.60528446  0.88194940     0.10000
C932        C  0.51872642  0.59415942  0.86947553    -0.16800
C933        C  0.40882211  0.97398785  0.54794028    -0.15900
C934        C  0.39262788  0.98984700  0.55526616     0.08100
C935        C  0.42502815  0.43062915  0.55677023     0.10000
C936        C  0.42158064  0.45689212  0.55782329    -0.16800
C937        C  0.37203869  0.58417156  0.71225684    -0.10700
C938        C  0.38340921  0.56451725  0.70136162    -0.12200
C939        C  0.40070386  0.79875513  0.73702119    -0.10700
C940        C  0.41701487  0.83103980  0.73457278    -0.12200
C941        C  0.19716823  0.62426111  0.73527472    -0.10700
C942        C  0.16421253  0.61126587  0.73608184    -0.12200
C943        C  0.42938017  0.58251744  0.98209171    -0.10700
C944        C  0.41210240  0.59910205  0.98287463    -0.12200
C945        C  0.41128762  0.82334808  0.95846968    -0.10700
C946        C  0.39640442  0.79158103  0.96571703    -0.12200
C947        C  0.20993320  0.58868278  0.99137376    -0.10700
C948        C  0.17805111  0.56966850  0.99459868    -0.12200
C949        C  0.33150211  0.66313475  0.83350858    -0.10700
C950        C  0.33450850  0.66041062  0.87679761    -0.12200
C951        C  0.33241438  0.67303079  0.62693795    -0.10700
C952        C  0.33791880  0.67281903  0.58394441    -0.12200
C953        C  0.83007663  0.16938315  0.03323317     0.32600
C954        C  0.83210804  0.16498035  0.43612190     0.32600
C955        C  0.84860531  0.14955076  0.01032036    -0.03600
C956        C  0.79212719  0.14860511  0.01118040    -0.04400
C957        C  0.84640501  0.20432919  0.00375546    -0.04300
C958        C  0.85243407  0.14867532  0.46254795    -0.03600
C959        C  0.79625714  0.14792304  0.46261641    -0.04400
C960        C  0.85024264  0.20256704  0.45607136    -0.04300
C961        C  0.87019916  0.13030458  0.45038866    -0.29700
N962        N  0.88279621  0.12197398  0.48885258     0.16800
C963        C  0.86763654  0.13257609  0.02463964    -0.29700
H964        H  0.87409612  0.12969218  0.05978342     0.18800
C965        C  0.76068248  0.12697116  0.45121561    -0.28600
N966        N  0.73460730  0.11570928  0.99115218     0.15600
C967        C  0.75739937  0.12998989  0.02733082    -0.28600
C968        C  0.86732533  0.23563910  0.43644297    -0.28900
N969        N  0.87441553  0.25751229  0.96830333     0.16100
H970        H  0.87068322  0.24142483  0.40010638     0.18700
C971        C  0.86602126  0.24100473  0.01024377    -0.28900
H972        H  0.87433709  0.25451338  0.04300602     0.18700
H973        H  0.74940155  0.12664459  0.06296460     0.18700
H974        H  0.87358986  0.12339344  0.41581154     0.18800
H975        H  0.75010223  0.11857938  0.41698244     0.18700
C976        C  0.83141243  0.16959341  0.28415464     0.32600
C977        C  0.83166466  0.17474748  0.18648560     0.32600
C978        C  0.85155525  0.15383644  0.25694854    -0.03600
C979        C  0.79474505  0.15162886  0.25932036    -0.04400
C980        C  0.84802921  0.20757700  0.26321596    -0.04300
C981        C  0.85162234  0.15639341  0.20851651    -0.03600
C982        C  0.79469052  0.15404890  0.21076012    -0.04400
C983        C  0.84839124  0.21062822  0.21456604    -0.04300
C984        C  0.86979896  0.13948906  0.19215361    -0.29700
N985        N  0.88069114  0.12695563  0.22827824     0.16800
C986        C  0.86972915  0.13550085  0.26775306    -0.29700
H987        H  0.87415535  0.12842526  0.30190383     0.18800
C988        C  0.75908599  0.13699318  0.19741258    -0.28600
N989        N  0.73803218  0.12463433  0.23539765     0.15600
C990        C  0.75948021  0.13336410  0.27306673    -0.29400
C991        C  0.86382467  0.24710243  0.20572959    -0.28900
N992        N  0.87249442  0.26562200  0.24626421     0.16100
H993        H  0.86829312  0.25917287  0.17207599     0.18700
C994        C  0.86292067  0.24162184  0.28109068    -0.28900
H995        H  0.86645591  0.24839145  0.31711601     0.18700
H996        H  0.75013047  0.12722182  0.30808272     0.18700
H997        H  0.87429387  0.13612159  0.15644075     0.18800
H998        H  0.74925683  0.13418098  0.16255434     0.18700
C999        C  0.56610438  0.44294609  0.35065297     0.45000
N1000       N  0.52893798  0.46305915  0.35625971     0.03900
C1001       C  0.57238466  0.12781930  0.44644495    -0.03900
H1002       H  0.59827482  0.06417053  0.04693572     0.09400
C1003       C  0.97642435  0.43620375  0.02770452    -0.04300
Co1004     Co  0.55692041  0.03615678  0.38578371     0.74200
N1005       N  0.57509240  0.04120341  0.48471585    -0.23500
Co1006     Co  0.52973004  0.04858766  0.48530456     0.74100
C1007       C  0.95986064  0.45014062  0.05690527     0.45100
N1008       N  0.94713431  0.42106754  0.44190597     0.03500
N1009       N  0.49921805  0.00637801  0.52880807     0.03700
N1010       N  0.59511663  0.11944378  0.38026190    -0.44300
H1011       H  0.61318234  0.49642803  0.37020499     0.09400
N1012       N  0.58490259  0.03546692  0.44415050     0.03900
N1013       N  0.97831634  0.04910392  0.48388971     0.03700
C1014       C  0.93738371  0.06488311  0.48423931     0.45300
N1015       N  0.95985928  0.41838405  0.40210787    -0.22900
C1016       C  0.50601427  0.06789156  0.37877670    -0.03800
N1017       N  0.53118487  0.43384058  0.34835919    -0.44000
N1018       N  0.97288741  0.07687764  0.48878782    -0.44300
C1019       C  0.96299851  0.04987786  0.38853984     0.45100
N1020       N  0.57660086  0.08929360  0.40330107     0.03900
N1021       N  0.93052308  0.46266188  0.37153613    -0.23000
N1022       N  0.56046673  0.49038564  0.36503941    -0.23400
N1023       N  0.92083438  0.46725372  0.41252101     0.03600
H1024       H  0.89779463  0.43530440  0.31242047     0.09500
H1025       H  0.89391601  0.00824580  0.46761710     0.09500
N1026       N  0.56207233  0.09324226  0.44146503    -0.23500
N1027       N  0.99441201  0.47299244  0.50401672    -0.23100
N1028       N  0.00632108  0.51976535  0.34424688     0.03900
C1029       C  0.63261582  0.05346741  0.48529136     0.45300
C1030       C  0.95090004  0.38408051  0.39557833    -0.04400
N1031       N  0.94818032  0.01863540  0.47780215    -0.23100
H1032       H  0.98636645  0.41929159  0.04126485     0.09500
N1033       N  0.61859812  0.04265114  0.44311125    -0.44300
H1034       H  0.95603157  0.37320256  0.36498443     0.09500
C1035       C  0.87094035  0.44272068  0.37598637     0.45200
C1036       C  0.58535449  0.48031006  0.36164184    -0.03900
Co1037     Co  0.98252686  0.46593010  0.36508307     0.73800
N1038       N  0.92939885  0.39038728  0.46372963    -0.44000
C1039       C  0.59420636  0.14512949  0.40610080     0.45400
N1040       N  0.99270533  0.53886026  0.36208199    -0.44000
Co1041     Co  0.95442549  0.47057996  0.46339606     0.73900
C1042       C  0.92138262  0.02673413  0.47550955    -0.04400
C1043       C  0.60363772  0.05294848  0.51301672    -0.03900
N1044       N  0.51107849  0.03900164  0.38029006    -0.23500
N1045       N  0.46627579  0.00637730  0.05075270    -0.44200
H1046       H  0.56467964  0.13926556  0.47413991     0.09400
C1047       C  0.90009052  0.44584883  0.34637452    -0.04300
Cl1048     Cl  0.00026150  0.00024574  0.42535161    -0.47300
C1049       C  0.93101038  0.36568918  0.43728085     0.45200
H1050       H  0.52530131  0.09442331  0.36888271     0.09400
N1051       N  0.88614971  0.45539059  0.41699887    -0.44000
C1052       C  0.56228764  0.44723991  0.11976013     0.45000
N1053       N  0.51699912  0.45588980  0.12662508     0.03900
C1054       C  0.55505854  0.12964430  0.17456210    -0.03900
H1055       H  0.60353554  0.08624656  0.28798673     0.09400
C1056       C  0.93324116  0.51719848  0.30334955    -0.04300
Co1057     Co  0.54716561  0.03616280  0.13425548     0.74200
N1058       N  0.57079199  0.05534533  0.23112120    -0.23500
Co1059     Co  0.52257244  0.05806785  0.22879478     0.74100
C1060       C  0.94587247  0.55484414  0.30342588     0.45100
N1061       N  0.94359334  0.43089546  0.25280322     0.03500
N1062       N  0.99787313  0.02065699  0.28365989     0.03700
N1063       N  0.57782484  0.11750043  0.11101797    -0.44300
H1064       H  0.60058962  0.50698052  0.11325726     0.09400
N1065       N  0.57941747  0.04560994  0.19228504     0.03900
N1066       N  0.97512620  0.05474392  0.22182821     0.03700
C1067       C  0.93338226  0.06903127  0.21948742     0.45300
N1068       N  0.96396222  0.42551161  0.22356042    -0.22900
C1069       C  0.48890516  0.06068376  0.11562001    -0.03800
N1070       N  0.52702594  0.43120552  0.12843360    -0.44000
N1071       N  0.96904461  0.08218945  0.22225218    -0.44300
C1072       C  0.95526998  0.04507002  0.12545780     0.45100
N1073       N  0.56248280  0.08972064  0.13909924     0.03900
N1074       N  0.91160796  0.41769382  0.15608317    -0.23000
N1075       N  0.54397560  0.48801268  0.11807584    -0.23400
N1076       N  0.89913069  0.43239768  0.18522237     0.03600
H1077       H  0.88527317  0.37724288  0.10409542     0.09500
H1078       H  0.88976422  0.01065177  0.21621698     0.09500
N1079       N  0.54852062  0.09610869  0.17591819    -0.23500
N1080       N  0.95728406  0.51175341  0.27952221    -0.23100
N1081       N  0.95748167  0.48715119  0.13831295     0.03900
C1082       C  0.62868686  0.06886613  0.23063955     0.45300
C1083       C  0.95884612  0.39240679  0.22810471    -0.04400
N1084       N  0.94513983  0.02349023  0.22052433    -0.23100
H1085       H  0.90515566  0.49860435  0.30335954     0.09500
N1086       N  0.61330099  0.05349685  0.19055938    -0.44300
H1087       H  0.96531104  0.37914937  0.20138794     0.09500
C1088       C  0.85225470  0.39248506  0.15267395     0.45200
C1089       C  0.57375016  0.48505656  0.11354057    -0.03900
Co1090     Co  0.96709740  0.44567695  0.15840297     0.73800
N1091       N  0.92138840  0.40022787  0.27354734    -0.44000
C1092       C  0.57398484  0.14361533  0.13183940     0.45400
N1093       N  0.92573915  0.48263397  0.12739848    -0.44000
Co1094     Co  0.93237602  0.47302236  0.23113168     0.73900
C1095       C  0.91757659  0.03037389  0.21774074    -0.04400
C1096       C  0.60048299  0.07075094  0.25756305    -0.03900
N1097       N  0.49872453  0.03578102  0.12655556    -0.23500
N1098       N  0.47361498  0.03256833  0.29974506    -0.44200
H1099       H  0.54768935  0.14265494  0.20060310     0.09400
C1100       C  0.88371408  0.39223922  0.13277110    -0.04300
Cl1101     Cl  0.99989740  0.00259992  0.18261639    -0.47300
C1102       C  0.92997141  0.37480875  0.26048515     0.45200
H1103       H  0.50578783  0.08650493  0.10110400     0.09400
N1104       N  0.86419881  0.41793149  0.18461878    -0.44000
C1105       C  0.66677786  0.34028370  0.32368835     0.32600
C1106       C  0.66922185  0.34427421  0.42153632     0.32600
C1107       C  0.64724324  0.35797322  0.34711152    -0.03600
C1108       C  0.65106623  0.30468473  0.35092096    -0.04400
C1109       C  0.70428095  0.36092624  0.34668477    -0.04300
C1110       C  0.64819350  0.36013394  0.39569749    -0.03600
C1111       C  0.65242244  0.30699021  0.39954513    -0.04400
C1112       C  0.70548274  0.36280699  0.39543003    -0.04300
C1113       C  0.62842579  0.37665448  0.40715291    -0.29700
N1114       N  0.61592011  0.38410558  0.36784185     0.16800
C1115       C  0.62726343  0.37294311  0.33137957    -0.29700
H1116       H  0.62149245  0.37567199  0.29583826     0.18800
C1117       C  0.63940565  0.27304250  0.41634161    -0.28600
N1118       N  0.63030233  0.25021016  0.38053535     0.15600
C1119       C  0.63719178  0.26899704  0.34060900    -0.28600
C1120       C  0.74123609  0.38036296  0.40762132    -0.28900
N1121       N  0.76157602  0.38915484  0.36897099     0.16100
H1122       H  0.75167216  0.38580429  0.44228297     0.18700
C1123       C  0.73940091  0.37746001  0.33183716    -0.28900
H1124       H  0.74812478  0.38016050  0.29655648     0.18700
H1125       H  0.63337472  0.25770765  0.30659818     0.18700
H1126       H  0.62364604  0.38290287  0.44144539     0.18800
H1127       H  0.63765782  0.26559693  0.45213660     0.18700
C1128       C  0.66337584  0.34269737  0.07345976     0.32600
C1129       C  0.66088288  0.34034710  0.17136009     0.32600
C1130       C  0.64574895  0.36257742  0.09782811    -0.03600
C1131       C  0.64287917  0.30587180  0.09648828    -0.04400
C1132       C  0.69909646  0.35784401  0.09975649    -0.04300
C1133       C  0.64454879  0.36135599  0.14670545    -0.03600
C1134       C  0.64157778  0.30458810  0.14518451    -0.04400
C1135       C  0.69776073  0.35675760  0.14841237    -0.04300
C1136       C  0.62755894  0.38013318  0.16025519    -0.29700
N1137       N  0.61858972  0.39269142  0.12232937     0.16800
C1138       C  0.62940634  0.38214606  0.08434479    -0.29700
H1139       H  0.62552461  0.38811934  0.04936569     0.18800
C1140       C  0.62530553  0.26921542  0.15711997    -0.28600
N1141       N  0.61694730  0.24948916  0.11815526     0.15600
C1142       C  0.62747635  0.27136812  0.08117597    -0.28600
C1143       C  0.73066256  0.36297335  0.16362311    -0.28900
N1144       N  0.75160692  0.36779125  0.12670003     0.16100
H1145       H  0.73801386  0.36151150  0.19884957     0.18700
C1146       C  0.73284627  0.36455861  0.08777768    -0.28900
H1147       H  0.74223467  0.36456027  0.05337887     0.18700
H1148       H  0.62545435  0.26286597  0.04587619     0.18700
H1149       H  0.62196981  0.38418733  0.19524270     0.18800
H1150       H  0.62121115  0.25863961  0.19164789     0.18700
C1151       C  0.66421284  0.33904756  0.26931867    -0.10700
C1152       C  0.66172055  0.33922418  0.22578032    -0.12200
C1153       C  0.66985664  0.34395221  0.51984763    -0.10700
C1154       C  0.66987410  0.34493706  0.47611011    -0.12200
C1155       C  0.60270412  0.21243735  0.11679245    -0.10700
C1156       C  0.59043986  0.18059541  0.11912820    -0.12200
C1157       C  0.78630416  0.37243374  0.12898098    -0.10700
C1158       C  0.81661152  0.37850762  0.13505979    -0.12200
C1159       C  0.58397846  0.42944230  0.12183653    -0.10700
C1160       C  0.60035726  0.41281200  0.12235861    -0.12200
C1161       C  0.60732499  0.18196389  0.39242184    -0.10700
C1162       C  0.61782153  0.21333638  0.38516432    -0.12200
C1163       C  0.79952354  0.40692722  0.36798586    -0.10700
C1164       C  0.83216815  0.42262437  0.36914879    -0.12200
C1165       C  0.58014105  0.41877499  0.35824262    -0.10700
C1166       C  0.59584084  0.40201373  0.36408747    -0.12200
C1167       C  0.93856185  0.57492809  0.33652563    -0.15900
C1168       C  0.95479932  0.59766881  0.36429688     0.08100
C1169       C  0.91270026  0.04925431  0.34810737     0.10000
C1170       C  0.93937685  0.06200242  0.37106646    -0.16800
C1171       C  0.92358241  0.44063522  0.04528414    -0.15900
C1172       C  0.89955316  0.44685044  0.03726350     0.08100
C1173       C  0.90182179  0.03117933  0.08256771     0.10000
C1174       C  0.92902076  0.05102027  0.10226729    -0.16800
C1175       C  0.89922671  0.10721451  0.22519990    -0.10700
C1176       C  0.91492546  0.08999905  0.22255622    -0.12200
C1177       C  0.88955544  0.30342272  0.25221055    -0.10700
C1178       C  0.90562987  0.33590169  0.25796124    -0.12200
C1179       C  0.70011361  0.10612305  0.23594909    -0.10700
C1180       C  0.66750098  0.08982136  0.23573893    -0.12200
C1181       C  0.91898162  0.08628605  0.48759221    -0.10700
C1182       C  0.90244480  0.10296531  0.48922314    -0.12200
C1183       C  0.91433350  0.32825390  0.44969165    -0.10700
C1184       C  0.89895883  0.29713531  0.46104644    -0.12200
C1185       C  0.70330782  0.09536593  0.49225698    -0.10700
C1186       C  0.67098784  0.07630899  0.49180999    -0.12200
C1187       C  0.83108270  0.16623891  0.33829491    -0.10700
C1188       C  0.83101935  0.16410669  0.38180561    -0.12200
C1189       C  0.83163333  0.17499281  0.13165462    -0.10700
C1190       C  0.83143869  0.17297729  0.08784964    -0.12200
C1191       C  0.83555622  0.17177827  0.53375362     0.32600
C1192       C  0.82586620  0.16248023  0.93578712     0.32600
C1193       C  0.85421278  0.15179183  0.51126559    -0.03600
C1194       C  0.79793040  0.15120430  0.51112297    -0.04400
C1195       C  0.85232275  0.20669386  0.50434926    -0.04300
C1196       C  0.84649708  0.14645714  0.96172426    -0.03600
C1197       C  0.79001078  0.14523452  0.96262317    -0.04400
C1198       C  0.84370135  0.19992547  0.95558274    -0.04300
C1199       C  0.86411713  0.12811959  0.94905347    -0.29700
N1200       N  0.87690065  0.11974687  0.98724095     0.16800
C1201       C  0.87320439  0.13482395  0.52597895    -0.29700
H1202       H  0.87950325  0.13205080  0.56125105     0.18800
C1203       C  0.75415943  0.12480436  0.95177620    -0.28600
N1204       N  0.74084701  0.11749236  0.49026273     0.15600
C1205       C  0.76316018  0.13199799  0.52679382    -0.28600
C1206       C  0.86079666  0.23264564  0.93515213    -0.28900
N1207       N  0.87997748  0.26023782  0.47004101     0.16100
H1208       H  0.86401240  0.23783587  0.89958010     0.18700
C1209       C  0.87115756  0.24324756  0.51159024    -0.28900
H1210       H  0.87819310  0.25638151  0.54455873     0.18700
H1211       H  0.75483193  0.12825573  0.56230912     0.18700
H1212       H  0.86716946  0.12113888  0.91437066     0.18800
H1213       H  0.74318647  0.11664870  0.91767520     0.18700
C1214       C  0.83098939  0.17101457  0.78452364     0.32600
C1215       C  0.83353367  0.17762793  0.68700108     0.32600
C1216       C  0.85037262  0.15422669  0.75781945    -0.03600
C1217       C  0.79509378  0.15476286  0.75854698    -0.04400
C1218       C  0.84936673  0.20947002  0.76460701    -0.04300
C1219       C  0.85159041  0.15763481  0.70948988    -0.03600
C1220       C  0.79593003  0.15771287  0.71005368    -0.04400
C1221       C  0.85090996  0.21331060  0.71598997    -0.04300
C1222       C  0.86751244  0.13859922  0.69314043    -0.29700
N1223       N  0.87605604  0.12395893  0.72913604     0.16800
C1224       C  0.86567655  0.13315646  0.76861630    -0.29700
H1225       H  0.86839019  0.12459523  0.80264256     0.18800
C1226       C  0.76046601  0.14031961  0.69591150    -0.28600
N1227       N  0.73898680  0.12750639  0.73352790     0.15600
C1228       C  0.75985050  0.13613360  0.77157163    -0.29400
C1229       C  0.86667153  0.25008549  0.70829592    -0.28900
N1230       N  0.87443859  0.26800722  0.74934758     0.16100
H1231       H  0.87159228  0.26276278  0.67487356     0.18700
C1232       C  0.86391621  0.24329300  0.78356382    -0.28900
H1233       H  0.86611853  0.24925682  0.81898602     0.18700
H1234       H  0.75009352  0.12907829  0.80631232     0.18700
H1235       H  0.87190986  0.13508201  0.65744074     0.18800
H1236       H  0.75105562  0.13706497  0.66081138     0.18700
C1237       C  0.56998138  0.43677304  0.84777514     0.45000
N1238       N  0.53326189  0.45714271  0.85223546     0.03900
C1239       C  0.56521499  0.12182851  0.94733351    -0.03900
H1240       H  0.60600935  0.06593546  0.54551997     0.09400
C1241       C  0.00189985  0.44675386  0.51283767    -0.04300
Co1242     Co  0.55081235  0.03024116  0.88797223     0.74200
N1243       N  0.56757272  0.03639928  0.98721156    -0.23500
Co1244     Co  0.52111594  0.04234682  0.98556475     0.74100
C1245       C  0.01238998  0.45248543  0.55998176     0.45100
N1246       N  0.95041540  0.41755310  0.93841919     0.03500
N1247       N  0.49022205  0.00093034  0.03011478     0.03700
N1248       N  0.58977371  0.11340482  0.88280124    -0.44300
H1249       H  0.61656534  0.48879064  0.87313647     0.09400
N1250       N  0.57800417  0.03027264  0.94726790     0.03900
N1251       N  0.97191483  0.04691557  0.98023285     0.03700
C1252       C  0.93079158  0.06233971  0.98093602     0.45300
N1253       N  0.96129801  0.41495797  0.89723592    -0.22900
C1254       C  0.49929335  0.06133595  0.87966243    -0.03800
N1255       N  0.53542590  0.42815411  0.84281615    -0.44000
N1256       N  0.96632896  0.07454847  0.98527155    -0.44300
C1257       C  0.96029047  0.04828004  0.88603777     0.45100
N1258       N  0.56977744  0.08317902  0.90492913     0.03900
N1259       N  0.93196306  0.46073177  0.87039614    -0.23000
N1260       N  0.56437904  0.48362098  0.86471258    -0.23400
N1261       N  0.92299143  0.46312273  0.91271964     0.03600
H1262       H  0.89856781  0.44103269  0.80942296     0.09500
H1263       H  0.88703275  0.00520681  0.96682686     0.09500
N1264       N  0.55423840  0.08712169  0.94211023    -0.23500
N1265       N  0.99719845  0.46462906  0.00262967    -0.23100
N1266       N  0.00544311  0.51736477  0.84167110     0.03900
C1267       C  0.62605806  0.05138717  0.98837169     0.45300
C1268       C  0.95078776  0.38028014  0.88982695    -0.04400
N1269       N  0.94170439  0.01632192  0.97448108    -0.23100
H1270       H  0.99032806  0.42140965  0.49603346     0.09500
N1271       N  0.61210976  0.03889248  0.94666737    -0.44300
H1272       H  0.95416932  0.36911191  0.85836648     0.09500
C1273       C  0.87313406  0.44304734  0.87710075     0.45200
C1274       C  0.58909440  0.47330739  0.86253124    -0.03900
Co1275     Co  0.98326357  0.46336968  0.86060863     0.73800
N1276       N  0.93259821  0.38687518  0.95997091    -0.44000
C1277       C  0.58861543  0.13912258  0.90818614     0.45400
N1278       N  0.99042597  0.53464194  0.86127819    -0.44000
Co1279     Co  0.95727244  0.46599074  0.96221849     0.73900
C1280       C  0.91471355  0.02410470  0.97272636    -0.04400
C1281       C  0.59637830  0.05025144  0.01537729    -0.03900
N1282       N  0.50483940  0.03271656  0.88119767    -0.23500
N1283       N  0.47288336  0.00850299  0.54821644    -0.44200
H1284       H  0.55759354  0.13345718  0.97489496     0.09400
C1285       C  0.90153899  0.44766564  0.84528119    -0.04300
Cl1286     Cl  0.99561315  0.99784995  0.92545970    -0.47300
C1287       C  0.93205299  0.36190234  0.93237029     0.45200
H1288       H  0.51850448  0.08808178  0.87042894     0.09400
N1289       N  0.88864036  0.45210888  0.91850980    -0.44000
C1290       C  0.56814849  0.43945750  0.65268499     0.45000
N1291       N  0.52167537  0.44578832  0.65809810     0.03900
C1292       C  0.55952025  0.12825962  0.67321188    -0.03900
H1293       H  0.60495520  0.08565819  0.78708349     0.09400
C1294       C  0.93348084  0.52115311  0.80148768    -0.04300
Co1295     Co  0.54990382  0.03378590  0.63432723     0.74200
N1296       N  0.57219945  0.05308118  0.73136377    -0.23500
Co1297     Co  0.52426866  0.05628091  0.72754755     0.74100
C1298       C  0.94619626  0.55886328  0.80144099     0.45100
N1299       N  0.94508888  0.43375405  0.76339418     0.03500
N1300       N  0.99384523  0.02056113  0.78158465     0.03700
N1301       N  0.58256750  0.11518785  0.61068587    -0.44300
H1302       H  0.60286931  0.49723776  0.63061483     0.09400
N1303       N  0.58099395  0.04275327  0.69312915     0.03900
N1304       N  0.96894503  0.05126454  0.71752005     0.03700
C1305       C  0.92620700  0.06411891  0.71526267     0.45300
N1306       N  0.96964906  0.42904715  0.74252726    -0.22900
C1307       C  0.49180384  0.05866420  0.61549598    -0.03800
N1308       N  0.53306199  0.42228074  0.66251460    -0.44000
N1309       N  0.96194222  0.07808209  0.71756181    -0.44300
C1310       C  0.94617211  0.03595115  0.62095050     0.45100
N1311       N  0.56589581  0.08744412  0.63853837     0.03900
N1312       N  0.91890629  0.41492324  0.66745945    -0.23000
N1313       N  0.54743148  0.47765374  0.64651261    -0.23400
N1314       N  0.90494288  0.43206724  0.68928568     0.03600
H1315       H  0.89464905  0.37007463  0.62074251     0.09500
H1316       H  0.88363895  0.00524829  0.71426572     0.09500
N1317       N  0.55167964  0.09431055  0.67474385    -0.23500
N1318       N  0.95797366  0.51582435  0.77877259    -0.23100
N1319       N  0.96863494  0.48416447  0.64690302     0.03900
C1320       C  0.63022640  0.06711513  0.73136313     0.45300
C1321       C  0.96405429  0.39595392  0.74983083    -0.04400
N1322       N  0.93946601  0.01955594  0.71696574    -0.23100
H1323       H  0.90558943  0.50193652  0.80292058     0.09500
N1324       N  0.61490004  0.05081896  0.69178054    -0.44300
H1325       H  0.97462869  0.38344229  0.72736429     0.09500
C1326       C  0.85985261  0.39088914  0.65512889     0.45200
C1327       C  0.57761387  0.47583362  0.64189584    -0.03900
Co1328     Co  0.97531870  0.44390252  0.67527721     0.73800
N1329       N  0.91955635  0.40222417  0.77885544    -0.44000
C1330       C  0.57949385  0.14188356  0.63101949     0.45400
N1331       N  0.93735388  0.47901144  0.63168662    -0.44000
Co1332     Co  0.93591809  0.47526080  0.73233248     0.73900
C1333       C  0.91127892  0.02550770  0.71427841    -0.04400
C1334       C  0.60189105  0.06921274  0.75766869    -0.03900
N1335       N  0.50158823  0.03369622  0.62650273    -0.23500
N1336       N  0.47341186  0.03024463  0.79725970    -0.44200
H1337       H  0.55241546  0.14177116  0.69884155     0.09400
C1338       C  0.89196878  0.38787659  0.64436302    -0.04300
Cl1339     Cl  0.99571687  0.99991466  0.68199222    -0.47300
C1340       C  0.92978668  0.37701717  0.77209665     0.45200
H1341       H  0.50891175  0.08466681  0.60158890     0.09400
N1342       N  0.87035683  0.41854981  0.68339252    -0.44000
C1343       C  0.67137431  0.33470076  0.82421981     0.32600
C1344       C  0.67115491  0.33998560  0.92174563     0.32600
C1345       C  0.65075555  0.35202547  0.84527055    -0.03600
C1346       C  0.65549327  0.29946332  0.85227921    -0.04400
C1347       C  0.70798184  0.35603321  0.84851963    -0.04300
C1348       C  0.65050749  0.35469737  0.89364672    -0.03600
C1349       C  0.65549879  0.30238530  0.90086416    -0.04400
C1350       C  0.70810545  0.35871953  0.89717867    -0.04300
C1351       C  0.63003610  0.37048555  0.90350338    -0.29700
N1352       N  0.61811851  0.37709145  0.86333261     0.16800
C1353       C  0.63054977  0.36613709  0.82782013    -0.29700
H1354       H  0.62541528  0.36849666  0.79193700     0.18800
C1355       C  0.64112531  0.26856395  0.91853388    -0.28600
N1356       N  0.63244660  0.24528285  0.88330128     0.15600
C1357       C  0.64095143  0.26360226  0.84291676    -0.28600
C1358       C  0.74362484  0.37751464  0.91020975    -0.28900
N1359       N  0.76445987  0.38610742  0.87201042     0.16100
H1360       H  0.75357330  0.38412947  0.94499619     0.18700
C1361       C  0.74309508  0.37317665  0.83449522    -0.28900
H1362       H  0.75243026  0.37569802  0.79952505     0.18700
H1363       H  0.63716620  0.25177118  0.80925624     0.18700
H1364       H  0.62443613  0.37692832  0.93725831     0.18800
H1365       H  0.63756141  0.26142348  0.95452625     0.18700
C1366       C  0.66979470  0.34178839  0.57435119     0.32600
C1367       C  0.66975270  0.33685779  0.67215130     0.32600
C1368       C  0.65475189  0.36250483  0.60217956    -0.03600
C1369       C  0.64821548  0.30443012  0.59617893    -0.04400
C1370       C  0.70629998  0.35434117  0.59887700    -0.04300
C1371       C  0.65501792  0.35993499  0.65082176    -0.03600
C1372       C  0.64819823  0.30209992  0.64486798    -0.04400
C1373       C  0.70595847  0.35197118  0.64757353    -0.04300
C1374       C  0.63833064  0.37766464  0.66812444    -0.29700
N1375       N  0.62783587  0.39082564  0.63261253     0.16800
C1376       C  0.63746205  0.38184170  0.59238851    -0.29700
H1377       H  0.63127037  0.38786292  0.55856265     0.18800
C1378       C  0.63229944  0.26665822  0.65577490    -0.28600
N1379       N  0.62279137  0.24757853  0.61632911     0.15600
C1380       C  0.63231984  0.27006984  0.57990742    -0.28600
C1381       C  0.73896989  0.35758387  0.66116133    -0.28900
N1382       N  0.75939098  0.36317327  0.62346227     0.16100
H1383       H  0.74696232  0.35576038  0.69592447     0.18700
C1384       C  0.73998767  0.36115017  0.58535293    -0.28900
H1385       H  0.74902570  0.36264412  0.55039698     0.18700
H1386       H  0.62970342  0.26212475  0.54431141     0.18700
H1387       H  0.63301668  0.37974026  0.70391190     0.18800
H1388       H  0.62968704  0.25559685  0.68986606     0.18700
C1389       C  0.67090364  0.33355053  0.76993193    -0.10700
C1390       C  0.67019798  0.33446918  0.72636871    -0.12200
C1391       C  0.66619086  0.34298358  0.01920602    -0.10700
C1392       C  0.66916393  0.34218812  0.97586787    -0.12200
C1393       C  0.60868201  0.21055217  0.61435842    -0.10700
C1394       C  0.59631793  0.17871580  0.61734582    -0.12200
C1395       C  0.79460872  0.36873745  0.62530011    -0.10700
C1396       C  0.82504493  0.37561425  0.63363715    -0.12200
C1397       C  0.58959189  0.42255506  0.64423324    -0.10700
C1398       C  0.60752137  0.40827767  0.63767492    -0.12200
C1399       C  0.60469736  0.17649555  0.89588867    -0.10700
C1400       C  0.61756946  0.20817077  0.88870766    -0.12200
C1401       C  0.80219225  0.40529226  0.87117331    -0.10700
C1402       C  0.83463484  0.42215378  0.87137092    -0.12200
C1403       C  0.58306933  0.41196950  0.85327934    -0.10700
C1404       C  0.59821165  0.39483365  0.85851148    -0.12200
C1405       C  0.93856406  0.57827095  0.83525717    -0.15900
C1406       C  0.95352862  0.59809483  0.86645815     0.08100
C1407       C  0.90995861  0.04889686  0.84718445     0.10000
C1408       C  0.93697176  0.06108868  0.86946256    -0.16800
C1409       C  0.97724020  0.43099289  0.58020314    -0.15900
C1410       C  0.94702287  0.42546144  0.57334051     0.08100
C1411       C  0.89498044  0.01480147  0.57173922     0.10000
C1412       C  0.91928559  0.03769905  0.59332087    -0.16800
C1413       C  0.89258609  0.10240234  0.72550558    -0.10700
C1414       C  0.90732135  0.08441876  0.72119064    -0.12200
C1415       C  0.89077108  0.30578828  0.75671731    -0.10700
C1416       C  0.90606306  0.33814451  0.76457443    -0.12200
C1417       C  0.70122050  0.10760771  0.73391892    -0.10700
C1418       C  0.66878401  0.08990101  0.73486309    -0.12200
C1419       C  0.91245346  0.08363304  0.98495094    -0.10700
C1420       C  0.89621179  0.10050033  0.98711272    -0.12200
C1421       C  0.91281462  0.32445924  0.94449763    -0.10700
C1422       C  0.89543310  0.29395455  0.95776375    -0.12200
C1423       C  0.69691735  0.09404762  0.99389506    -0.10700
C1424       C  0.66449290  0.07505186  0.99433009    -0.12200
C1425       C  0.82835270  0.16609699  0.83834226    -0.10700
C1426       C  0.82599338  0.16242608  0.88161177    -0.12200
C1427       C  0.83488927  0.17795885  0.63212298    -0.10700
C1428       C  0.83589304  0.17561356  0.58839755    -0.12200
C1429       C  0.83869524  0.66543676  0.02563600     0.32600
C1430       C  0.83420885  0.66205685  0.42758287     0.32600
C1431       C  0.85896152  0.64689418  0.00252900    -0.03600
C1432       C  0.80191593  0.64430351  0.00350276    -0.04400
C1433       C  0.85391011  0.70037783  0.99720680    -0.04300
C1434       C  0.85565266  0.64588852  0.45394846    -0.03600
C1435       C  0.79851058  0.64397637  0.45432410    -0.04400
C1436       C  0.85164810  0.69952702  0.44895864    -0.04300
C1437       C  0.87540458  0.62876850  0.44288997    -0.29700
N1438       N  0.88829125  0.62094455  0.48201657     0.16800
C1439       C  0.87968805  0.63145988  0.01714602    -0.29700
H1440       H  0.88616338  0.62919442  0.05250415     0.18800
C1441       C  0.76283563  0.62236502  0.44400624    -0.28600
N1442       N  0.74503694  0.61091281  0.98622385     0.15600
C1443       C  0.76823174  0.62560075  0.02124230    -0.28600
C1444       C  0.86827925  0.73345945  0.43131851    -0.28900
N1445       N  0.87910706  0.75490412  0.96649893     0.16100
H1446       H  0.87214731  0.74060598  0.39532439     0.18700
C1447       C  0.87083300  0.73641717  0.00674302    -0.28900
H1448       H  0.87705184  0.74827716  0.04051686     0.18700
H1449       H  0.76110548  0.62235897  0.05721698     0.18700
H1450       H  0.88006260  0.62257798  0.40850230     0.18800
H1451       H  0.75149520  0.61350182  0.41020377     0.18700
C1452       C  0.82435718  0.66679830  0.27502738     0.32600
C1453       C  0.82420545  0.66963116  0.17667271     0.32600
C1454       C  0.83838136  0.64535019  0.24823834    -0.03600
C1455       C  0.78729158  0.65374238  0.25060233    -0.04400
C1456       C  0.84600352  0.70386431  0.25170574    -0.04300
C1457       C  0.83807971  0.64702475  0.19989213    -0.03600
C1458       C  0.78701642  0.65502982  0.20147150    -0.04400
C1459       C  0.84593859  0.70507965  0.20286073    -0.04300
C1460       C  0.85150500  0.62641882  0.18334845    -0.29700
N1461       N  0.85990916  0.61225055  0.21938188     0.16800
C1462       C  0.85233802  0.62339660  0.25919687    -0.29700
H1463       H  0.85678750  0.61621183  0.29326695     0.18800
C1464       C  0.75156457  0.64322597  0.18886646    -0.28600
N1465       N  0.73073353  0.63507255  0.22729252     0.15600
C1466       C  0.75227662  0.64135207  0.26468827    -0.29400
C1467       C  0.86450882  0.74035942  0.19041627    -0.28900
N1468       N  0.87582529  0.76048750  0.22899894     0.16100
H1469       H  0.86882629  0.75068997  0.15574959     0.18700
C1470       C  0.86477045  0.73874301  0.26636886    -0.28900
H1471       H  0.86940016  0.74765879  0.30164624     0.18700
H1472       H  0.74321821  0.63742634  0.29989643     0.18700
H1473       H  0.85512558  0.62208235  0.14763613     0.18800
H1474       H  0.74176608  0.64102274  0.15408419     0.18700
C1475       C  0.55862422  0.94359709  0.34222629     0.45000
N1476       N  0.52018952  0.96271062  0.34755398     0.03900
C1477       C  0.57052654  0.62464863  0.45937576    -0.03900
H1478       H  0.61065847  0.55631243  0.05063000     0.09400
C1479       C  0.94377751  0.95201416  0.03847740    -0.04300
Co1480     Co  0.56772887  0.53836185  0.38896856     0.74200
N1481       N  0.58339838  0.54097543  0.48754370    -0.23500
Co1482     Co  0.53631879  0.54566064  0.49349301     0.74100
C1483       C  0.93608746  0.97828473  0.05520625     0.45100
N1484       N  0.94589928  0.91857366  0.45078549     0.03500
N1485       N  0.51287003  0.49812181  0.53018127     0.03700
N1486       N  0.59715623  0.61953526  0.39560444    -0.44300
H1487       H  0.60460702  0.99835180  0.35937008     0.09400
N1488       N  0.59306001  0.53509787  0.44688200     0.03900
N1489       N  0.98754916  0.54926693  0.49265022     0.03700
C1490       C  0.94652076  0.56593703  0.49090369     0.45300
N1491       N  0.95832597  0.91645011  0.41063388    -0.22900
C1492       C  0.54181644  0.57363052  0.33382315    -0.03800
N1493       N  0.52359935  0.93386362  0.34184222    -0.44000
N1494       N  0.98204542  0.57723725  0.49724963    -0.44300
C1495       C  0.01735214  0.57305566  0.35893037     0.45100
N1496       N  0.57709603  0.58818844  0.41493665     0.03900
N1497       N  0.91415642  0.94292938  0.37681657    -0.23000
N1498       N  0.55172903  0.99162821  0.35172188    -0.23400
N1499       N  0.90689223  0.95123759  0.41740914     0.03600
H1500       H  0.87898497  0.91113848  0.32158301     0.09500
H1501       H  0.90359206  0.50975262  0.47291872     0.09500
N1502       N  0.56165301  0.59049613  0.45269172    -0.23500
N1503       N  0.98594557  0.97247379  0.51386745    -0.23100
N1504       N  0.97782186  0.00737794  0.38903166     0.03900
C1505       C  0.63846645  0.54716996  0.48905810     0.45300
C1506       C  0.95169831  0.88284122  0.40460826    -0.04400
N1507       N  0.95775637  0.51998716  0.48305900    -0.23100
H1508       H  0.92283029  0.92694468  0.02706573     0.09500
N1509       N  0.62518282  0.53845085  0.44651553    -0.44300
H1510       H  0.95402419  0.87174640  0.37242332     0.09500
C1511       C  0.85546802  0.92318985  0.38489457     0.45200
C1512       C  0.57719830  0.98191697  0.34908184    -0.03900
Co1513     Co  0.96859024  0.95594237  0.36186737     0.73800
N1514       N  0.93098883  0.88801584  0.47347464    -0.44000
C1515       C  0.59394434  0.64382514  0.42090161     0.45400
N1516       N  0.95096978  0.01476257  0.39118087    -0.44000
Co1517     Co  0.94639663  0.96611258  0.46733477     0.73900
C1518       C  0.93091679  0.52802086  0.48158642    -0.04400
C1519       C  0.61068857  0.54892117  0.51668443    -0.03900
N1520       N  0.53794486  0.54078568  0.33448721    -0.23500
N1521       N  0.48060915  0.48729334  0.05478683    -0.44200
H1522       H  0.56230677  0.63483066  0.48799209     0.09400
C1523       C  0.88286548  0.92440599  0.35410827    -0.04300
Cl1524     Cl  0.01165359  0.50556512  0.42949714    -0.47300
C1525       C  0.93422564  0.86419251  0.44693818     0.45200
H1526       H  0.56607159  0.59732293  0.32675642     0.09400
N1527       N  0.87235527  0.93945880  0.42403484    -0.44000
C1528       C  0.55596427  0.94407657  0.10097981     0.45000
N1529       N  0.51455963  0.95935440  0.10400610     0.03900
C1530       C  0.53800289  0.62628412  0.13967539    -0.03900
H1531       H  0.59563917  0.61858656  0.26192534     0.09400
C1532       C  0.94866322  0.97071414  0.29034930    -0.04300
Co1533     Co  0.53863264  0.53322980  0.13532652     0.74200
N1534       N  0.56103170  0.57191386  0.22212968    -0.23500
Co1535     Co  0.50754432  0.56518189  0.20922899     0.74100
C1536       C  0.94253325  0.99848886  0.30446013     0.45100
N1537       N  0.94689992  0.92302397  0.22001163     0.03500
N1538       N  0.98425150  0.54367447  0.26944694     0.03700
N1539       N  0.57109042  0.61157629  0.09348797    -0.44300
H1540       H  0.59948544  0.00159391  0.11000498     0.09400
N1541       N  0.57030742  0.55472001  0.19237269     0.03900
N1542       N  0.95335208  0.54776009  0.19389952     0.03700
C1543       C  0.90729892  0.55465569  0.19017416     0.45300
N1544       N  0.96077282  0.91881370  0.18227065    -0.22900
C1545       C  0.47131810  0.54028029  0.09951386    -0.03800
N1546       N  0.52040429  0.93172280  0.10288707    -0.44000
N1547       N  0.94295415  0.57153068  0.18633099    -0.44300
C1548       C  0.92842460  0.51038538  0.10387940     0.45100
N1549       N  0.54936059  0.58457052  0.12012593     0.03900
N1550       N  0.91369328  0.93546785  0.13540458    -0.23000
N1551       N  0.54485597  0.99008882  0.10408804    -0.23400
N1552       N  0.90562890  0.94848351  0.17167543     0.03600
H1553       H  0.87995292  0.89855725  0.08287361     0.09500
H1554       H  0.87016249  0.49768287  0.21343519     0.09500
N1555       N  0.53072499  0.59313870  0.14807028    -0.23500
N1556       N  0.98206824  0.98671676  0.27416613    -0.23100
N1557       N  0.97337242  0.00627869  0.13657961     0.03900
C1558       C  0.62071836  0.58892495  0.22502400     0.45300
C1559       C  0.95431812  0.88517971  0.17960324    -0.04400
N1560       N  0.92588064  0.51564538  0.20345700    -0.23100
H1561       H  0.92858367  0.94405289  0.28410154     0.09500
N1562       N  0.60457453  0.56395284  0.19288314    -0.44300
H1563       H  0.95674385  0.87264214  0.14878674     0.09500
C1564       C  0.85476144  0.91621917  0.13982139     0.45200
C1565       C  0.57210824  0.98279927  0.10212620    -0.03900
Co1566     Co  0.97010636  0.95567646  0.13181965     0.73800
N1567       N  0.93037969  0.89323161  0.24431265    -0.44000
C1568       C  0.56462369  0.63880835  0.10395793     0.45400
N1569       N  0.94535775  0.01127783  0.13597722    -0.44000
Co1570     Co  0.94455125  0.97131914  0.22363646     0.73900
C1571       C  0.89587897  0.51785684  0.20152120    -0.04400
C1572       C  0.59196279  0.59548479  0.24333795    -0.03900
N1573       N  0.48648408  0.52356386  0.12313083    -0.23500
N1574       N  0.47463428  0.57064067  0.28555186    -0.44200
H1575       H  0.53064277  0.64171888  0.16182504     0.09400
C1576       C  0.88277550  0.91382001  0.11339036    -0.04300
Cl1577     Cl  0.98898055  0.50110404  0.18772744    -0.47300
C1578       C  0.93479775  0.86828984  0.22147378     0.45200
H1579       H  0.48546674  0.56423479  0.07967557     0.09400
N1580       N  0.87110262  0.93737299  0.17595870    -0.44000
C1581       C  0.65378329  0.83255308  0.32023952     0.32600
C1582       C  0.65379145  0.83682135  0.41788102     0.32600
C1583       C  0.63364148  0.85062131  0.34215095    -0.03600
C1584       C  0.63733013  0.79683548  0.34798095    -0.04400
C1585       C  0.69070684  0.85297579  0.34491820    -0.04300
C1586       C  0.63349175  0.85284145  0.39070836    -0.03600
C1587       C  0.63747618  0.79982878  0.39647710    -0.04400
C1588       C  0.69045234  0.85484163  0.39355392    -0.04300
C1589       C  0.61486989  0.87084645  0.40093040    -0.29700
N1590       N  0.60400567  0.87946562  0.36103291     0.16800
C1591       C  0.61522479  0.86719671  0.32532796    -0.29700
H1592       H  0.61104711  0.87081539  0.28948624     0.18800
C1593       C  0.62627949  0.76700554  0.41513750    -0.28600
N1594       N  0.61931864  0.74360669  0.38090810     0.15600
C1595       C  0.62608509  0.76108531  0.33977187    -0.28600
C1596       C  0.72543056  0.86994450  0.40817456    -0.28900
N1597       N  0.74697358  0.87747963  0.37105969     0.16100
H1598       H  0.73446643  0.87408328  0.44348705     0.18700
C1599       C  0.72626310  0.86714435  0.33246815    -0.28900
H1600       H  0.73617330  0.86867487  0.29798286     0.18700
H1601       H  0.62449738  0.74911650  0.30667560     0.18700
H1602       H  0.61035221  0.87789007  0.43490605     0.18800
H1603       H  0.62499101  0.76082014  0.45135216     0.18700
C1604       C  0.65590630  0.83924680  0.06946435     0.32600
C1605       C  0.65315883  0.83512899  0.16723974     0.32600
C1606       C  0.63556936  0.85580220  0.09432152    -0.03600
C1607       C  0.63853421  0.80208242  0.09130869    -0.04400
C1608       C  0.69207214  0.85701280  0.09589558    -0.04300
C1609       C  0.63408842  0.85405285  0.14299735    -0.03600
C1610       C  0.63710572  0.79956275  0.13985348    -0.04400
C1611       C  0.69054731  0.85496869  0.14458251    -0.04300
C1612       C  0.61581474  0.87200133  0.15606538    -0.29700
N1613       N  0.60646796  0.88414091  0.11775920     0.16800
C1614       C  0.61837744  0.87431526  0.08034293    -0.29700
H1615       H  0.61532217  0.88074586  0.04523668     0.18800
C1616       C  0.62394129  0.76384330  0.14977982    -0.28600
N1617       N  0.61767690  0.74550257  0.10962899     0.15600
C1618       C  0.62641055  0.76850211  0.07411877    -0.28600
C1619       C  0.72517562  0.86808586  0.16009446    -0.28900
N1620       N  0.74748783  0.87793468  0.12344438     0.16100
H1621       H  0.73334561  0.86884783  0.19547229     0.18700
C1622       C  0.72772458  0.87125467  0.08432528    -0.28900
H1623       H  0.73829004  0.87495696  0.04989781     0.18700
H1624       H  0.62486838  0.76139965  0.03834428     0.18700
H1625       H  0.61027557  0.87632588  0.19093090     0.18800
H1626       H  0.61999335  0.75221653  0.18368095     0.18700
C1627       C  0.65335713  0.83181179  0.26559711    -0.10700
C1628       C  0.65279875  0.83289919  0.22183162    -0.12200
C1629       C  0.65334476  0.83398072  0.51550962    -0.10700
C1630       C  0.65375345  0.83655947  0.47210368    -0.12200
C1631       C  0.60372343  0.70852751  0.10456956    -0.10700
C1632       C  0.58926212  0.67648212  0.10047734    -0.12200
C1633       C  0.78474610  0.89046444  0.12596035    -0.10700
C1634       C  0.81672400  0.90140803  0.13012389    -0.12200
C1635       C  0.57359314  0.92261134  0.11051609    -0.10700
C1636       C  0.58858081  0.90472549  0.11575148    -0.12200
C1637       C  0.60211124  0.67840092  0.40315597    -0.10700
C1638       C  0.60971276  0.70790155  0.38970245    -0.12200
C1639       C  0.78460943  0.89255136  0.37330204    -0.10700
C1640       C  0.81691163  0.90603391  0.37756093    -0.12200
C1641       C  0.57311058  0.91937997  0.35064108    -0.10700
C1642       C  0.58674956  0.90041505  0.35646011    -0.12200
C1643       C  0.90944298  0.99927607  0.30904755    -0.15900
C1644       C  0.89765584  0.01796179  0.32205950     0.08100
C1645       C  0.98984547  0.61099730  0.38012717     0.10000
C1646       C  0.01155278  0.60131888  0.37503491    -0.16800
C1647       C  0.90229510  0.97817585  0.05662244    -0.15900
C1648       C  0.88900466  0.99653947  0.06531204     0.08100
C1649       C  0.89002408  0.47349918  0.04385007     0.10000
C1650       C  0.90347090  0.50008163  0.06673434    -0.16800
C1651       C  0.87515426  0.59041680  0.21425098    -0.10700
C1652       C  0.88890817  0.57291126  0.20450661    -0.12200
C1653       C  0.89551039  0.79797485  0.22953505    -0.10700
C1654       C  0.91289053  0.83016660  0.22774813    -0.12200
C1655       C  0.69288297  0.62170291  0.22851966    -0.10700
C1656       C  0.66014691  0.60892444  0.22914075    -0.12200
C1657       C  0.92787164  0.58786121  0.48778054    -0.10700
C1658       C  0.90988389  0.60347677  0.48482106    -0.12200
C1659       C  0.91500484  0.82605753  0.45478943    -0.10700
C1660       C  0.89876362  0.79416328  0.46116977    -0.12200
C1661       C  0.70756466  0.58980011  0.48926278    -0.10700
C1662       C  0.67607827  0.57011058  0.49378105    -0.12200
C1663       C  0.82698920  0.66428542  0.32956578    -0.10700
C1664       C  0.83064034  0.66205338  0.37290309    -0.12200
C1665       C  0.82895771  0.66990266  0.12232271    -0.10700
C1666       C  0.83535296  0.66849927  0.07977271    -0.12200
C1667       C  0.83690415  0.66730460  0.52559171     0.32600
C1668       C  0.83479875  0.65958282  0.92767206     0.32600
C1669       C  0.85672860  0.64842793  0.50297044    -0.03600
C1670       C  0.80041319  0.64689396  0.50263777    -0.04400
C1671       C  0.85307869  0.70246588  0.49745895    -0.04300
C1672       C  0.85719443  0.64408865  0.95351096    -0.03600
C1673       C  0.79937198  0.64108963  0.95527601    -0.04400
C1674       C  0.85199092  0.69730856  0.94876210    -0.04300
C1675       C  0.87708861  0.62713741  0.94175581    -0.29700
N1676       N  0.89078580  0.61949610  0.98033725     0.16800
C1677       C  0.87685021  0.63278152  0.51840867    -0.29700
H1678       H  0.88285267  0.63042906  0.55394402     0.18800
C1679       C  0.76333930  0.61997593  0.94582649    -0.28600
N1680       N  0.74414107  0.61280257  0.48399851     0.15600
C1681       C  0.76664346  0.62758083  0.51960393    -0.28600
C1682       C  0.86772023  0.73140043  0.93120620    -0.28900
N1683       N  0.87980866  0.75688289  0.46655684     0.16100
H1684       H  0.87101218  0.73858240  0.89522146     0.18700
C1685       C  0.87076774  0.73851199  0.50691863    -0.28900
H1686       H  0.87701812  0.75044106  0.54065005     0.18700
H1687       H  0.75902656  0.62367051  0.55541144     0.18700
H1688       H  0.88113108  0.62078985  0.90717069     0.18800
H1689       H  0.75144944  0.61139129  0.91222677     0.18700
C1690       C  0.82273568  0.66295175  0.77503293     0.32600
C1691       C  0.82231617  0.66769796  0.67691980     0.32600
C1692       C  0.83691063  0.64194571  0.74679977    -0.03600
C1693       C  0.78538898  0.65042161  0.75091758    -0.04400
C1694       C  0.84425175  0.70042781  0.75281307    -0.04300
C1695       C  0.83637241  0.64456574  0.69855801    -0.03600
C1696       C  0.78512753  0.65271556  0.70189253    -0.04400
C1697       C  0.84407573  0.70259507  0.70412499    -0.04300
C1698       C  0.85099252  0.62530203  0.68049546    -0.29700
N1699       N  0.86045019  0.61091577  0.71536379     0.16800
C1700       C  0.85230132  0.62075412  0.75599454    -0.29700
H1701       H  0.85756434  0.61345052  0.78955291     0.18800
C1702       C  0.74992802  0.64263543  0.68944124    -0.28600
N1703       N  0.72893755  0.63439021  0.72776177     0.15600
C1704       C  0.75036814  0.63908850  0.76502937    -0.29400
C1705       C  0.86186758  0.73814980  0.69284449    -0.28900
N1706       N  0.87287464  0.75757343  0.73202521     0.16100
H1707       H  0.86572482  0.74913447  0.65856375     0.18700
C1708       C  0.86231564  0.73506351  0.76863731    -0.28900
H1709       H  0.86665190  0.74326906  0.80419917     0.18700
H1710       H  0.74134090  0.63508517  0.80023926     0.18700
H1711       H  0.85496583  0.62230870  0.64445079     0.18800
H1712       H  0.74048729  0.64194499  0.65474688     0.18700
C1713       C  0.55561482  0.93938738  0.84275056     0.45000
N1714       N  0.51632841  0.95739126  0.84841741     0.03900
C1715       C  0.57099363  0.61731611  0.95775112    -0.03900
H1716       H  0.61292969  0.55958908  0.55081163     0.09400
C1717       C  0.95502248  0.94963158  0.53363321    -0.04300
Co1718     Co  0.57075522  0.53139958  0.88734051     0.74200
N1719       N  0.58205756  0.53319233  0.98783021    -0.23500
Co1720     Co  0.53462993  0.53781944  0.98960398     0.74100
C1721       C  0.94267668  0.97192986  0.55220276     0.45100
N1722       N  0.94141390  0.91684697  0.95108277     0.03500
N1723       N  0.50566810  0.49087932  0.02655044     0.03700
N1724       N  0.59874542  0.61383518  0.89431013    -0.44300
H1725       H  0.60071350  0.99429904  0.86171173     0.09400
N1726       N  0.59362782  0.52810557  0.94800089     0.03900
N1727       N  0.98889524  0.54537799  0.99207794     0.03700
C1728       C  0.94921528  0.56365323  0.98462744     0.45300
N1729       N  0.95476029  0.91477254  0.91153991    -0.22900
C1730       C  0.55139896  0.56641295  0.82440301    -0.03800
N1731       N  0.52044198  0.92903115  0.84183563    -0.44000
N1732       N  0.98408140  0.57394236  0.99458429    -0.44300
C1733       C  0.01408763  0.56918171  0.86090649     0.45100
N1734       N  0.57865733  0.58179010  0.91244714     0.03900
N1735       N  0.91079066  0.94058641  0.87369565    -0.23000
N1736       N  0.54746830  0.98657379  0.85362551    -0.23400
N1737       N  0.90290783  0.94961124  0.91329854     0.03600
H1738       H  0.87609726  0.90843286  0.81816372     0.09500
H1739       H  0.90746634  0.50887863  0.96119967     0.09500
N1740       N  0.56249990  0.58331647  0.95000473    -0.23500
N1741       N  0.97498568  0.97098027  0.01672800    -0.23100
N1742       N  0.97449689  0.00536950  0.88665216     0.03900
C1743       C  0.63911017  0.54433066  0.99203388     0.45300
C1744       C  0.94950848  0.88153803  0.90653256    -0.04400
N1745       N  0.95955141  0.51628385  0.98091822    -0.23100
H1746       H  0.95088744  0.92548267  0.55020160     0.09500
N1747       N  0.62669283  0.53396685  0.94947233    -0.44300
H1748       H  0.95309502  0.87056892  0.87496312     0.09500
C1749       C  0.85234582  0.92300277  0.87888898     0.45200
C1750       C  0.57346571  0.97757600  0.85098523    -0.03900
Co1751     Co  0.96549233  0.95348125  0.86136036     0.73800
N1752       N  0.92714822  0.88638653  0.97417440    -0.44000
C1753       C  0.59495743  0.63771375  0.92030922     0.45400
N1754       N  0.94784885  0.01307116  0.88847606    -0.44000
Co1755     Co  0.94017066  0.96417296  0.96539409     0.73900
C1756       C  0.93399537  0.52590958  0.97381470    -0.04400
C1757       C  0.60945283  0.54409801  0.01785516    -0.03900
N1758       N  0.54459424  0.53286436  0.82838519    -0.23500
N1759       N  0.52813493  0.48667575  0.56050280    -0.44200
H1760       H  0.56172619  0.62663021  0.98622271     0.09400
C1761       C  0.87985364  0.92249645  0.85002495    -0.04300
Cl1762     Cl  0.01183905  0.50148222  0.92593049    -0.47300
C1763       C  0.93172343  0.86281497  0.94862690     0.45200
H1764       H  0.57781740  0.58842052  0.82223650     0.09400
N1765       N  0.86852993  0.93920978  0.91822644    -0.44000
C1766       C  0.55911671  0.94168101  0.60186520     0.45000
N1767       N  0.51780768  0.95719058  0.60352424     0.03900
C1768       C  0.52784079  0.61208494  0.62835703    -0.03900
H1769       H  0.58953928  0.61869273  0.75115125     0.09400
C1770       C  0.94502411  0.97045123  0.78902819    -0.04300
Co1771     Co  0.54331037  0.52401807  0.63157264     0.74200
N1772       N  0.55810917  0.56902807  0.71484085    -0.23500
Co1773     Co  0.50259247  0.55724345  0.70130200     0.74100
C1774       C  0.93842089  0.99820749  0.80196194     0.45100
N1775       N  0.94379420  0.92034485  0.72265122     0.03500
N1776       N  0.98508177  0.54759850  0.76879259     0.03700
N1777       N  0.56771005  0.60095108  0.59312305    -0.44300
H1778       H  0.60265067  0.99913301  0.61183579     0.09400
N1779       N  0.56946012  0.55042774  0.69066206     0.03900
N1780       N  0.95654987  0.54791887  0.68839877     0.03700
C1781       C  0.91019289  0.55475613  0.68351407     0.45300
N1782       N  0.95800228  0.91553357  0.68562206    -0.22900
C1783       C  0.47063419  0.51218114  0.59191837    -0.03800
N1784       N  0.52356415  0.92949808  0.60270594    -0.44000
N1785       N  0.94592482  0.57149694  0.68004179    -0.44300
C1786       C  0.94124887  0.49646639  0.59284489     0.45100
N1787       N  0.54370477  0.57238316  0.61583149     0.03900
N1788       N  0.91043207  0.92988168  0.63554703    -0.23000
N1789       N  0.54815141  0.98786446  0.60434297    -0.23400
N1790       N  0.90153881  0.94261752  0.67144286     0.03600
H1791       H  0.87826529  0.89413218  0.58124211     0.09500
H1792       H  0.87358716  0.49814168  0.70815314     0.09500
N1793       N  0.52113848  0.57909646  0.63793081    -0.23500
N1794       N  0.97856111  0.98640426  0.77345248    -0.23100
N1795       N  0.96769519  0.00051237  0.63689971     0.03900
C1796       C  0.61870176  0.58948236  0.72255970     0.45300
C1797       C  0.95129551  0.88178392  0.68401683    -0.04400
N1798       N  0.92919840  0.51583799  0.69800455    -0.23100
H1799       H  0.92557138  0.94346442  0.78408531     0.09500
N1800       N  0.60402891  0.56144500  0.69458013    -0.44300
H1801       H  0.95368478  0.86875716  0.65366776     0.09500
C1802       C  0.85129321  0.91011377  0.63830172     0.45200
C1803       C  0.57537753  0.98045010  0.60327249    -0.03900
Co1804     Co  0.96705778  0.95115597  0.63358533     0.73800
N1805       N  0.92661866  0.89078600  0.74730898    -0.44000
C1806       C  0.55897897  0.62719716  0.59927445     0.45400
N1807       N  0.93845760  0.00312531  0.63308271    -0.44000
Co1808     Co  0.94040018  0.96819793  0.72317582     0.73900
C1809       C  0.89907567  0.51792783  0.69509023    -0.04400
C1810       C  0.58818935  0.59571467  0.73455647    -0.03900
N1811       N  0.48735182  0.50340968  0.62490146    -0.23500
N1812       N  0.47584300  0.56973223  0.78103715    -0.44200
H1813       H  0.51851169  0.62663194  0.64911487     0.09400
C1814       C  0.88002245  0.90824773  0.61256709    -0.04300
Cl1815     Cl  0.99549714  0.50333361  0.69017334    -0.47300
C1816       C  0.93113239  0.86543920  0.72566706     0.45200
H1817       H  0.48374080  0.53364448  0.57005105     0.09400
N1818       N  0.86691266  0.93121691  0.67471787    -0.44000
C1819       C  0.65012129  0.82672493  0.82022067     0.32600
C1820       C  0.65251773  0.83466327  0.91754222     0.32600
C1821       C  0.62939563  0.84450609  0.84148948    -0.03600
C1822       C  0.63571226  0.79205324  0.85015646    -0.04400
C1823       C  0.68737532  0.84925169  0.84303384    -0.04300
C1824       C  0.63052285  0.84850231  0.88986717    -0.03600
C1825       C  0.63700447  0.79656712  0.89852989    -0.04400
C1826       C  0.68833748  0.85303305  0.89144187    -0.04300
C1827       C  0.61284507  0.86750663  0.89956073    -0.29700
N1828       N  0.60114287  0.87501956  0.85958140     0.16800
C1829       C  0.61111113  0.86118601  0.82424631    -0.29700
H1830       H  0.60653202  0.86412411  0.78832451     0.18800
C1831       C  0.62752831  0.76414232  0.91846343    -0.28600
N1832       N  0.62041847  0.73976074  0.88510087     0.15600
C1833       C  0.62547036  0.75630076  0.84342442    -0.28600
C1834       C  0.72370202  0.87049893  0.90437493    -0.28900
N1835       N  0.74424808  0.87748073  0.86638332     0.16100
H1836       H  0.73375278  0.87643906  0.93919306     0.18700
C1837       C  0.72259876  0.86467759  0.82890883    -0.28900
H1838       H  0.73171787  0.86525684  0.79419493     0.18700
H1839       H  0.62326609  0.74367758  0.81064578     0.18700
H1840       H  0.60987930  0.87630962  0.93318260     0.18800
H1841       H  0.62731608  0.75899495  0.95480650     0.18700
C1842       C  0.65200525  0.83057875  0.56954889     0.32600
C1843       C  0.64891124  0.82550040  0.66715345     0.32600
C1844       C  0.63227994  0.84748686  0.59479882    -0.03600
C1845       C  0.63383407  0.79269750  0.59060823    -0.04400
C1846       C  0.68797317  0.84745881  0.59607167    -0.04300
C1847       C  0.63063559  0.84531329  0.64331755    -0.03600
C1848       C  0.63225892  0.78983657  0.63924570    -0.04400
C1849       C  0.68641902  0.84492161  0.64462555    -0.04300
C1850       C  0.61427842  0.86504055  0.65683057    -0.29700
N1851       N  0.60613944  0.87852923  0.61880270     0.16800
C1852       C  0.61707195  0.86792739  0.58120919    -0.29700
H1853       H  0.61495540  0.87533535  0.54626145     0.18800
C1854       C  0.61880377  0.75385750  0.64881368    -0.28600
N1855       N  0.61230226  0.73537812  0.60862453     0.15600
C1856       C  0.62140871  0.75882735  0.57327577    -0.28600
C1857       C  0.72120810  0.85859754  0.65997057    -0.28900
N1858       N  0.74350512  0.86915532  0.62320015     0.16100
H1859       H  0.72954911  0.85958986  0.69529772     0.18700
C1860       C  0.72360751  0.86251475  0.58426808    -0.28900
H1861       H  0.73413861  0.86709346  0.54975177     0.18700
H1862       H  0.61998942  0.75188844  0.53738892     0.18700
H1863       H  0.60947973  0.86984896  0.69182965     0.18800
H1864       H  0.61488793  0.74216790  0.68265423     0.18700
C1865       C  0.64906796  0.82411123  0.76564049    -0.10700
C1866       C  0.64847886  0.82389114  0.72181616    -0.12200
C1867       C  0.65594932  0.83973470  0.01517176    -0.10700
C1868       C  0.65449449  0.83823973  0.97163894    -0.12200
C1869       C  0.59795402  0.69798794  0.60372502    -0.10700
C1870       C  0.58337916  0.66564296  0.59951160    -0.12200
C1871       C  0.78094870  0.88259660  0.62519276    -0.10700
C1872       C  0.81311038  0.89428608  0.62864952    -0.12200
C1873       C  0.57625418  0.91976972  0.61173493    -0.10700
C1874       C  0.59008601  0.90081752  0.61706036    -0.12200
C1875       C  0.60404535  0.67365243  0.90511541    -0.10700
C1876       C  0.61152193  0.70391107  0.89402882    -0.12200
C1877       C  0.78184841  0.89305238  0.86713325    -0.10700
C1878       C  0.81408650  0.90642393  0.87074762    -0.12200
C1879       C  0.57066306  0.91544281  0.84972514    -0.10700
C1880       C  0.58430091  0.89637859  0.85481736    -0.12200
C1881       C  0.90524159  0.99868713  0.80748186    -0.15900
C1882       C  0.89394812  0.01764568  0.82105774     0.08100
C1883       C  0.98679689  0.60707637  0.88564650     0.10000
C1884       C  0.00735562  0.59595398  0.88042837    -0.16800
C1885       C  0.90712542  0.96762363  0.54829262    -0.15900
C1886       C  0.88905034  0.98167959  0.55460289     0.08100
C1887       C  0.92719279  0.44125528  0.55524219     0.10000
C1888       C  0.92748082  0.46939190  0.55815211    -0.16800
C1889       C  0.87703589  0.59014561  0.70847523    -0.10700
C1890       C  0.89152987  0.57319975  0.69796087    -0.12200
C1891       C  0.89188955  0.79509292  0.73366684    -0.10700
C1892       C  0.90897540  0.82734131  0.73231507    -0.12200
C1893       C  0.69110851  0.62239053  0.72867366    -0.10700
C1894       C  0.65827166  0.61031759  0.72833899    -0.12200
C1895       C  0.93036804  0.58582039  0.98363004    -0.10700
C1896       C  0.91239810  0.60173895  0.98207548    -0.12200
C1897       C  0.91291884  0.82446169  0.95613561    -0.10700
C1898       C  0.89726110  0.79235500  0.96159146    -0.12200
C1899       C  0.70822219  0.58857826  0.99234610    -0.10700
C1900       C  0.67660557  0.56888384  0.99727180    -0.12200
C1901       C  0.82599045  0.66044515  0.82959499    -0.10700
C1902       C  0.83038102  0.65891302  0.87295671    -0.12200
C1903       C  0.82692410  0.66947876  0.62254774    -0.10700
C1904       C  0.83327865  0.66935085  0.57977599    -0.12200
loop_ 
_geom_bond_atom_site_label_1 
_geom_bond_atom_site_label_2 
_geom_bond_distance 
_geom_bond_site_symmetry_2 
_ccdc_geom_bond_type 
C1            C3   1.582       .  S
C1            C5   1.573       .  S
C1            C4   1.567       .  S
C1          C238   1.600       .  S
C2            C6   1.563       .  S
C2            C8   1.531       .  S
C2            C7   1.555       .  S
C2          C236   1.583       .  S
C3           C11   1.402       .  A
C3          C244   1.424   1_554  A
C4           C15   1.393       .  A
C4          C245   1.420   1_554  A
C5           C19   1.401       .  A
C5          C246   1.414   1_554  A
C6            C9   1.391       .  A
C6          C241   1.425       .  A
C7           C13   1.388       .  A
C7          C242   1.417       .  A
C8           C16   1.370       .  A
C8          C243   1.417       .  A
C9           N10   1.364       .  A
C9           H22   1.083       .  S
N10         C249   1.372       .  A
N10         C230   1.438       .  S
C11         N248   1.372   1_554  A
C11          H12   1.082       .  S
C13         N252   1.363       .  A
C13          H23   1.083       .  S
N14          C15   1.365   1_556  A
N14         C251   1.364       .  A
N14         C471   1.427       .  S
C15          H21   1.083       .  S
C16         N255   1.348       .  A
C16          H18   1.083       .  S
N17          C19   1.371   1_556  A
N17         C254   1.344       .  A
N17         C470   1.415       .  S
C19          H20   1.080       .  S
C24          C26   1.553       .  S
C24          C28   1.563       .  S
C24          C27   1.554       .  S
C24         C235   1.583       .  S
C25          C29   1.550       .  S
C25          C31   1.585       .  S
C25          C30   1.565       .  S
C25         C237   1.599       .  S
C26          C34   1.388       .  A
C26          C29   1.414       .  A
C27          C38   1.387       .  A
C27          C30   1.419       .  A
C28          C42   1.392       .  A
C28          C31   1.425       .  A
C29          C32   1.383       .  A
C30          C36   1.391       .  A
C31          C39   1.403       .  A
C32          N33   1.359       .  A
C32          H45   1.083       .  S
N33          C34   1.363       .  A
N33         C223   1.419       .  S
C34          H35   1.083       .  S
C36          N37   1.365       .  A
C36          H46   1.082       .  S
N37          C38   1.361       .  A
N37         C227   1.424       .  S
C38          H44   1.083       .  S
C39          N40   1.373       .  A
C39          H41   1.082       .  S
N40          C42   1.363       .  A
N40         C225   1.439       .  S
C42          H43   1.082       .  S
C47          N65   1.354       .  A
C47          C84   1.449       .  S
C47         C213   1.450       .  S
N48          N65   1.332       .  A
N48          N70   1.323       .  A
N48       Co1037   2.130   1_455  S
C49          N74   1.347       .  A
C49          H94   1.082       .  S
C49          C87   1.469       .  S
H50         C329   1.082       .  S
C51         N313   1.334       .  A
C51          H80   1.073       .  S
C51          C55   1.414       .  S
Co52         N60   2.090       .  S
Co52         N92   2.043       .  S
Co52         N68   2.082       .  S
Co52        N546   2.080   1_545  S
Co52      Cl1048   2.383       .  S
N53          C91   1.355       .  A
N53          N60   1.321       .  A
N53         Co54   2.124       .  S
Co54         N57   2.089   1_455  S
Co54         N74   2.175       .  S
Co54       N1013   2.127   1_455  S
Co54      Cl1048   2.532       .  S
C55        N1521   1.353       .  A
C55         C219   1.448       .  S
N56          N63   1.315       .  A
N56          N86   1.325       .  A
N56         Co89   2.102       .  S
N57        N1503   1.301   1_545  A
N57         N331   1.311       .  A
N58          C87   1.357       .  A
N58          N68   1.330       .  A
H59          C84   1.081       .  S
N60          N81   1.328       .  A
N61          N79   1.338       .  A
N61          N66   1.339       .  A
N61       Co1006   2.138       .  S
C62          N66   1.362       .  A
C62          C90   1.467       .  S
C62         C229   1.488       .  S
N63          C78   1.352       .  A
N63         Co85   2.090       .  S
C64          N92   1.368       .  A
C64          H98   1.079       .  S
C64        C1019   1.442   1_455  S
C67         N564   1.348       .  A
C67        C1016   1.442       .  S
C67         C218   1.440       .  S
N68          N74   1.329       .  A
N69          C95   1.354       .  A
N69          N71   1.313       .  A
N69         Co85   2.160       .  S
N70          C84   1.340       .  A
N70        Co528   2.066       .  S
N71          N99   1.326       .  A
N71         Co89   2.019       .  S
H72          C95   1.076       .  S
H73          C90   1.081       .  S
N75         C289   1.343       .  A
N75        N1485   1.299       .  A
N75         Co89   2.036       .  S
N76          N88   1.329       .  A
N76        N1520   1.329       .  A
N76         Co85   2.112       .  S
C77          N81   1.349       .  A
C77          C91   1.480       .  S
C77         C234   1.472       .  S
C78          H82   1.082       .  S
C78          C97   1.477       .  S
N79          C90   1.356       .  A
N79        Co565   2.254   1_545  S
C83          N99   1.343       .  A
C83          C95   1.468       .  S
C83         C212   1.458       .  S
Co85       N1000   2.125       .  S
Co85       Cl572   2.440       .  S
N86          C97   1.345       .  A
C87         C209   1.461       .  S
N88         C543   1.336       .  A
Co89        N555   2.145       .  S
Co89       Cl572   2.391       .  S
C91         H288   1.082       .  S
N92        N1504   1.316   1_455  A
N93        C1483   1.341   1_545  A
N93         N295   1.310       .  A
Cl96      Co1004   2.389       .  S
Cl96      Co1006   2.528       .  S
Cl96       Co561   2.531   1_545  S
Cl96       Co565   2.398   1_545  S
C97         C231   1.456       .  S
C100        N118   1.351       .  A
C100        C137   1.471       .  S
C100        C207   1.468       .  S
N101        N118   1.330       .  A
N101        N123   1.332       .  A
N101      Co1090   2.114   1_455  S
C102        N127   1.339       .  A
C102        H147   1.082       .  S
C102        C140   1.456       .  S
H103        C144   1.082       .  S
C104        N128   1.357       .  A
C104        H133   1.079       .  S
C104        C108   1.441       .  S
Co105       N113   2.096       .  S
Co105       N145   2.080       .  S
Co105       N121   2.083       .  S
Co105       N599   2.137   1_545  S
Co105     Cl1101   2.363   1_455  S
N106        C144   1.353       .  A
N106        N113   1.325       .  A
N106       Co107   2.128       .  S
Co107       N127   2.146       .  S
Co107      N1062   2.075   1_455  S
Co107      N1066   2.131   1_455  S
Co107     Cl1101   2.462   1_455  S
C108       N1574   1.338       .  A
C108        C215   1.433       .  S
N109        N116   1.324       .  A
N109        N139   1.342       .  A
N109       Co142   2.177       .  S
N110        N604   1.313   1_545  A
N110       N1098   1.319       .  A
N110      Co1059   2.066       .  S
N111        C140   1.361       .  A
N111        N121   1.333       .  A
H112        C137   1.081       .  S
N113        N134   1.326       .  A
N114        N132   1.341       .  A
N114        N119   1.330       .  A
N114      Co1059   2.126       .  S
C115        N119   1.351       .  A
C115        C143   1.467       .  S
C115        C224   1.461       .  S
N116        C131   1.344       .  A
N116       Co138   2.068       .  S
C117        N145   1.367   1_655  A
C117        H151   1.079   1_655  S
C117       C1072   1.463       .  S
C120        N617   1.340       .  A
C120       C1069   1.463       .  S
C120        C222   1.437       .  S
N121        N127   1.327       .  A
N122        C148   1.352       .  A
N122        N124   1.322       .  A
N122       Co138   2.083       .  S
N123        C137   1.353       .  A
N123       Co581   2.143       .  S
N124        N152   1.317       .  A
N124       Co142   2.122       .  S
H125        C148   1.081       .  S
H126        C143   1.082       .  S
N128        N586   1.335       .  A
N128       Co142   2.043       .  S
N129        N141   1.318       .  A
N129       N1573   1.307       .  A
N129       Co138   2.113       .  S
C130        N134   1.348       .  A
C130        C144   1.479       .  S
C130        C228   1.467       .  S
C131        H135   1.082       .  S
C131        C150   1.451       .  S
N132        C143   1.355       .  A
N132       Co618   2.238   1_545  S
C136        N152   1.340       .  A
C136        C148   1.477       .  S
C136        C206   1.440       .  S
Co138      N1053   2.116       .  S
Co138      Cl625   2.272       .  S
N139        C150   1.370       .  A
C140        C204   1.455       .  S
N141        C596   1.336       .  A
Co142       N608   2.136       .  S
Co142      Cl625   2.477       .  S
N145       N1557   1.310   1_455  A
N146       C1536   1.346   1_545  A
N146       N1062   1.320       .  A
Cl149     Co1057   2.364       .  S
Cl149      Co614   2.321   1_545  S
Cl149     Co1059   2.456       .  S
Cl149      Co618   2.415   1_545  S
C150        C226   1.488       .  S
C153        C155   1.547       .  S
C153        C157   1.557       .  S
C153        C156   1.566       .  S
C153        C199   1.588       .  S
C154        C158   1.559       .  S
C154        C160   1.559       .  S
C154        C159   1.545       .  S
C154        C202   1.589       .  S
C155        C163   1.378       .  A
C155        C158   1.420       .  A
C156        C167   1.392       .  A
C156        C159   1.420       .  A
C157        C171   1.386       .  A
C157        C160   1.422       .  A
C158        C161   1.387       .  A
C159        C165   1.377       .  A
C160        C168   1.385       .  A
C161        N162   1.363       .  A
C161        H174   1.083       .  S
N162        C163   1.356       .  A
N162        C214   1.412       .  S
C163        H164   1.083       .  S
C165        N166   1.356       .  A
C165        H175   1.083       .  S
N166        C167   1.367       .  A
N166        C210   1.418       .  S
C167        H173   1.082       .  S
C168        N169   1.362       .  A
C168        H170   1.083       .  S
N169        C171   1.361       .  A
N169        C211   1.418       .  S
C171        H172   1.083       .  S
C176        C178   1.562       .  S
C176        C180   1.546       .  S
C176        C179   1.558       .  S
C176        C439   1.586       .  S
C177        C181   1.558       .  S
C177        C183   1.551       .  S
C177        C182   1.551       .  S
C177        C200   1.588       .  S
C178        C186   1.388       .  A
C178        C181   1.421       .  A
C179        C190   1.387       .  A
C179        C182   1.420       .  A
C180        C194   1.382       .  A
C180        C183   1.425       .  A
C181        C184   1.388       .  A
C182        C188   1.380       .  A
C183        C191   1.380       .  A
C184        N185   1.363       .  A
C184        H197   1.083       .  S
N185        C186   1.364       .  A
N185        C208   1.423       .  S
C186        H187   1.082       .  S
C188        N189   1.359       .  A
C188        H198   1.083       .  S
N189        C190   1.362       .  A
N189        C203   1.416       .  S
C190        H196   1.082       .  S
C191        N192   1.356       .  A
C191        H193   1.083       .  S
N192        C194   1.354       .  A
N192        C205   1.407       .  S
C194        H195   1.083       .  S
C199        C200   1.274       .  T
C201        C414   1.589       .  S
C201        C202   1.274       .  T
C203        C204   1.218       .  T
C205        C206   1.210       .  T
C207        C208   1.225       .  T
C209        C210   1.221       .  T
C211        C212   1.220       .  T
C213        C214   1.215       .  T
C215        C216   1.201       .  T
C216        C693   1.402       .  S
C217        C218   1.204       .  T
C217        C692   1.407       .  S
C219        C220   1.208       .  T
C220        C697   1.411       .  S
C221        C222   1.207       .  T
C221        C696   1.414   1_545  S
C223        C224   1.221       .  T
C225        C226   1.237       .  T
C227        C228   1.225       .  T
C229        C230   1.237       .  T
C231        C232   1.218       .  T
C232        N255   1.416       .  S
C233        N252   1.427       .  S
C233        C234   1.227       .  T
C235        C236   1.271       .  T
C237        C238   1.281       .  T
C239        C241   1.583       .  S
C239        C243   1.575       .  S
C239        C242   1.564       .  S
C239        C476   1.600       .  S
C240        C244   1.557       .  S
C240        C246   1.527       .  S
C240        C245   1.558       .  S
C240        C474   1.582       .  S
C241        C249   1.403       .  A
C242        C253   1.393       .  A
C243        C257   1.400       .  A
C244        C247   1.386       .  A
C245        C251   1.388       .  A
C246        C254   1.366       .  A
C247        N248   1.361       .  A
C247        H260   1.083       .  S
N248        C468   1.435       .  S
C249        H250   1.082       .  S
C251        H261   1.083       .  S
N252        C253   1.365       .  A
C253        H259   1.082       .  S
C254        H256   1.096       .  S
N255        C257   1.371       .  A
C257        H258   1.082       .  S
C262        C264   1.560       .  S
C262        C266   1.563       .  S
C262        C265   1.553       .  S
C262        C473   1.582       .  S
C263        C267   1.554       .  S
C263        C269   1.586       .  S
C263        C268   1.573       .  S
C263        C475   1.600       .  S
C264        C272   1.394       .  A
C264        C267   1.414       .  A
C265        C276   1.387       .  A
C265        C268   1.419       .  A
C266        C280   1.391       .  A
C266        C269   1.422       .  A
C267        C270   1.386       .  A
C268        C274   1.397       .  A
C269        C277   1.406       .  A
C270        N271   1.360       .  A
C270        H283   1.083       .  S
N271        C272   1.366       .  A
N271        C461   1.426       .  S
C272        H273   1.083       .  S
C274        N275   1.369       .  A
C274        H284   1.083       .  S
N275        C276   1.360       .  A
N275        C465   1.429       .  S
C276        H282   1.083       .  S
C277        N278   1.375       .  A
C277        H279   1.080       .  S
N278        C280   1.362       .  A
N278        C463   1.443       .  S
C280        H281   1.094       .  S
C285        N303   1.356       .  A
C285        C322   1.450       .  S
C285        C451   1.455       .  S
N286        N303   1.333       .  A
N286        N308   1.321       .  A
N286      Co1275   2.124   1_455  S
C287        N312   1.348       .  A
C287        H332   1.082       .  S
C287        C325   1.469       .  S
C289        H318   1.076       .  S
C289        C293   1.425       .  S
Co290       N784   2.080   1_545  S
Co290       N298   2.088       .  S
Co290       N330   2.040       .  S
Co290       N306   2.086       .  S
Co290     Cl1286   2.389   1_445  S
N291        C329   1.356   1_556  A
N291        N298   1.321       .  A
N291       Co292   2.126       .  S
Co292       N295   2.083   1_456  S
Co292       N312   2.175       .  S
Co292      N1251   2.138   1_455  S
Co292     Cl1286   2.525   1_445  S
C293       N1759   1.370       .  A
C293        C457   1.462       .  S
N294        N301   1.315       .  A
N294        N324   1.323       .  A
N294       Co327   2.095       .  S
N295       N1741   1.308   1_545  A
N296        C325   1.359       .  A
N296        N306   1.332       .  A
H297        C322   1.081       .  S
N298        N319   1.327       .  A
N299        N317   1.340       .  A
N299        N304   1.338       .  A
N299      Co1244   2.149       .  S
C300        N304   1.362       .  A
C300        C328   1.467       .  S
C300        C467   1.484       .  S
N301        C316   1.356       .  A
N301       Co323   2.107       .  S
C302        N330   1.367   1_655  A
C302        H336   1.079   1_655  S
C302       C1257   1.442       .  S
C305        N802   1.348       .  A
C305       C1254   1.441       .  S
C305        C456   1.440       .  S
N306        N312   1.329       .  A
N307        C333   1.366       .  A
N307        N309   1.314       .  A
N307       Co323   2.199       .  S
N308        C322   1.340       .  A
N308       Co766   2.066       .  S
N309        N337   1.325       .  A
N309       Co327   2.008       .  S
H310        C333   1.072       .  S
H311        C328   1.081       .  S
N313       N1723   1.298       .  A
N313       Co327   2.097   1_554  S
N314        N326   1.324       .  A
N314       N1758   1.327       .  A
N314       Co323   2.120       .  S
C315        N319   1.348       .  A
C315        C329   1.481   1_556  S
C315        C472   1.472       .  S
C316        H320   1.081       .  S
C316        C335   1.478       .  S
N317        C328   1.355       .  A
N317       Co803   2.233   1_545  S
C321        N337   1.336       .  A
C321        C333   1.474       .  S
C321        C450   1.468       .  S
Co323      N1238   2.117       .  S
Co323      Cl810   2.424       .  S
N324        C335   1.338       .  A
C325        C447   1.466       .  S
N326        C781   1.340       .  A
Co327       N793   2.203       .  S
Co327      Cl810   2.356       .  S
N330       N1742   1.315   1_455  A
N331       C1721   1.346   1_545  A
Cl334     Co1242   2.384   1_565  S
Cl334     Co1244   2.526   1_565  S
Cl334      Co799   2.535       .  S
Cl334      Co803   2.404       .  S
C335        C469   1.455       .  S
C338        N356   1.353       .  A
C338        C375   1.451       .  S
C338        C445   1.449       .  S
N339        N356   1.330       .  A
N339        N361   1.327       .  A
N339      Co1328   2.084   1_455  S
C340        N365   1.339       .  A
C340        H385   1.082       .  S
C340        C378   1.456       .  S
H341        C382   1.082       .  S
C342        N366   1.359       .  A
C342        H371   1.078       .  S
C342        C346   1.448       .  S
Co343       N837   2.143   1_545  S
Co343       N351   2.092       .  S
Co343       N383   2.093   1_455  S
Co343       N359   2.087       .  S
Co343     Cl1339   2.356   1_445  S
N344        C382   1.357       .  A
N344        N351   1.324       .  A
N344       Co345   2.139       .  S
Co345      N1300   2.070   1_455  S
Co345       N365   2.144       .  S
Co345      N1304   2.131   1_455  S
Co345     Cl1339   2.467   1_445  S
C346       N1812   1.339       .  A
C346        C453   1.435       .  S
N347        N354   1.318       .  A
N347        N377   1.346       .  A
N347       Co380   2.208       .  S
N348        N842   1.313   1_545  A
N348       N1336   1.321       .  A
N348      Co1297   2.072       .  S
N349        C378   1.363       .  A
N349        N359   1.334       .  A
H350        C375   1.082       .  S
N351        N372   1.327       .  A
N352        N370   1.342       .  A
N352        N357   1.332       .  A
N352      Co1297   2.133       .  S
C353        N357   1.354       .  A
C353        C381   1.469       .  S
C353        C462   1.470       .  S
N354        C369   1.347       .  A
N354       Co376   2.033       .  S
C355        N383   1.371       .  A
C355        H389   1.080   1_655  S
C355       C1310   1.470       .  S
C358        N855   1.339       .  A
C358       C1307   1.467       .  S
C358        C460   1.436       .  S
N359        N365   1.325       .  A
N360        C386   1.357       .  A
N360        N362   1.324       .  A
N360       Co376   2.123       .  S
N361        C375   1.343       .  A
N361       Co819   2.131       .  S
N362        N390   1.318       .  A
N362       Co380   2.116       .  S
H363        C386   1.081       .  S
H364        C381   1.082       .  S
N366        N824   1.332       .  A
N366       Co380   2.070       .  S
N367        N379   1.328       .  A
N367       N1811   1.300       .  A
N367       Co376   2.058       .  S
C368        N372   1.347       .  A
C368        C382   1.485       .  S
C368        C466   1.474       .  S
C369        H373   1.082       .  S
C369        C388   1.448       .  S
N370        C381   1.356       .  A
N370       Co856   2.249   1_545  S
C374        N390   1.340       .  A
C374        C386   1.483       .  S
C374        C444   1.450       .  S
Co376      N1291   2.074       .  S
Co376      Cl863   2.320       .  S
N377        C388   1.369       .  A
C378        C442   1.458       .  S
N379        C834   1.324       .  A
Co380       N846   2.152       .  S
Co380      Cl863   2.560       .  S
N383       N1795   1.311       .  A
N384       C1774   1.346   1_545  A
N384       N1300   1.320       .  A
Cl387     Co1295   2.354       .  S
Cl387      Co852   2.331   1_545  S
Cl387     Co1297   2.465       .  S
Cl387      Co856   2.408   1_545  S
C388        C464   1.495       .  S
C391        C393   1.548       .  S
C391        C395   1.554       .  S
C391        C394   1.563       .  S
C391        C437   1.579       .  S
C392        C396   1.559       .  S
C392        C398   1.571       .  S
C392        C397   1.548       .  S
C392        C440   1.585       .  S
C393        C401   1.381       .  A
C393        C396   1.416       .  A
C394        C405   1.392       .  A
C394        C397   1.417       .  A
C395        C409   1.385       .  A
C395        C398   1.421       .  A
C396        C399   1.388       .  A
C397        C403   1.381       .  A
C398        C406   1.394       .  A
C399        N400   1.363       .  A
C399        H412   1.082       .  S
N400        C401   1.358       .  A
N400        C452   1.416       .  S
C401        H402   1.083       .  S
C403        N404   1.358       .  A
C403        H413   1.083       .  S
N404        C405   1.367       .  A
N404        C448   1.422       .  S
C405        H411   1.082       .  S
C406        N407   1.368       .  A
C406        H408   1.082       .  S
N407        C409   1.360       .  A
N407        C449   1.425       .  S
C409        H410   1.083       .  S
C414        C416   1.564       .  S
C414        C418   1.562       .  S
C414        C417   1.560       .  S
C415        C419   1.539       .  S
C415        C421   1.543       .  S
C415        C420   1.550       .  S
C415        C438   1.579       .  S
C416        C424   1.390       .  A
C416        C419   1.419       .  A
C417        C428   1.388       .  A
C417        C420   1.421       .  A
C418        C432   1.391       .  A
C418        C421   1.424       .  A
C419        C422   1.374       .  A
C420        C426   1.380       .  A
C421        C429   1.375       .  A
C422        N423   1.354       .  A
C422        H435   1.083       .  S
N423        C424   1.365       .  A
N423        C446   1.411       .  S
C424        H425   1.082       .  S
C426        N427   1.359       .  A
C426        H436   1.083       .  S
N427        C428   1.363       .  A
N427        C441   1.417       .  S
C428        H434   1.082       .  S
C429        N430   1.354       .  A
C429        H431   1.083       .  S
N430        C432   1.362       .  A
N430        C443   1.413       .  S
C432        H433   1.082       .  S
C437        C438   1.268       .  T
C439        C440   1.272   1_554  T
C441        C442   1.219       .  T
C443        C444   1.216       .  T
C445        C446   1.214       .  T
C447        C448   1.224       .  T
C449        C450   1.226       .  T
C451        C452   1.218       .  T
C453        C454   1.201       .  T
C454        C931   1.402       .  S
C455        C456   1.203       .  T
C455        C930   1.406       .  S
C457        C458   1.216       .  T
C458        C935   1.424       .  S
C459        C460   1.208       .  T
C459        C934   1.417   1_545  S
C461        C462   1.226       .  T
C463        C464   1.241       .  T
C465        C466   1.229       .  T
C467        C468   1.234       .  T
C469        C470   1.218       .  T
C471        C472   1.228       .  T
C473        C474   1.270       .  T
C475        C476   1.281       .  T
C477        C479   1.601       .  S
C477        C481   1.559       .  S
C477        C480   1.536       .  S
C477        C714   1.600       .  S
C478        C482   1.596       .  S
C478        C484   1.548       .  S
C478        C483   1.555       .  S
C478        C712   1.604       .  S
C479        C487   1.414       .  A
C479        C720   1.433   1_554  A
C480        C491   1.375       .  A
C480        C721   1.413   1_554  A
C481        C495   1.391       .  A
C481        C722   1.415   1_554  A
C482        C717   1.432       .  A
C482        C485   1.409       .  A
C483        C718   1.413       .  A
C483        C489   1.386       .  A
C484        C719   1.418       .  A
C484        C492   1.380       .  A
C485        N486   1.376       .  A
C485        H498   1.082       .  S
N486        C725   1.371       .  A
N486        C706   1.454       .  S
C487        N724   1.379   1_554  A
C487        H488   1.082       .  S
C489        N728   1.363       .  A
C489        H499   1.082       .  S
N490        C727   1.364       .  A
N490        C491   1.351   1_556  A
N490        C947   1.410       .  S
C491        H497   1.083       .  S
C492        N731   1.357       .  A
C492        H494   1.083       .  S
N493        C730   1.356       .  A
N493        C495   1.364   1_556  A
N493        C946   1.417       .  S
C495        H496   1.082       .  S
C500        C502   1.541       .  S
C500        C504   1.565       .  S
C500        C503   1.583       .  S
C500        C711   1.604       .  S
C501        C505   1.519       .  S
C501        C507   1.557       .  S
C501        C506   1.579       .  S
C501        C713   1.601       .  S
C502        C510   1.380       .  A
C502        C505   1.411       .  A
C503        C514   1.398       .  A
C503        C506   1.434       .  A
C504        C518   1.388       .  A
C504        C507   1.426       .  A
C505        C508   1.359       .  A
C506        C512   1.397       .  A
C507        C515   1.383       .  A
C508        N509   1.343       .  A
C508        H521   1.084       .  S
N509        C510   1.357       .  A
N509        C699   1.387       .  S
C510        H511   1.082       .  S
C512        N513   1.369       .  A
C512        H522   1.083       .  S
N513        C514   1.370       .  A
N513        C703   1.441       .  S
C514        H520   1.082       .  S
C515        N516   1.361       .  A
C515        H517   1.083       .  S
N516        C518   1.363       .  A
N516        C701   1.419       .  S
C518        H519   1.082       .  S
C523        N541   1.352       .  A
C523        C560   1.463       .  S
C523        C689   1.472       .  S
N524        N541   1.333       .  A
N524        N546   1.331       .  A
N524      Co1513   2.163   1_455  S
C525        N550   1.348       .  A
C525        H570   1.082       .  S
C525        C563   1.467       .  S
H526        C805   1.082       .  S
C527        N789   1.344       .  A
C527        H556   1.070       .  S
C527        C531   1.414       .  S
Co528       N536   2.048       .  S
Co528       N568   2.066       .  S
Co528       N544   2.145       .  S
Co528     Cl1524   2.454       .  S
N529        C567   1.349       .  A
N529        N536   1.322       .  A
N529       Co530   2.135       .  S
Co530       N533   2.080       .  S
Co530       N550   2.072       .  S
Co530      N1489   2.157   1_455  S
Co530     Cl1524   2.477       .  S
C531       N1045   1.342   1_565  A
C531        C695   1.452       .  S
N532        N539   1.310       .  A
N532        N562   1.329       .  A
N532       Co565   2.100       .  S
N533       N1027   1.299   1_455  A
N533        N807   1.325       .  A
N534        C563   1.347       .  A
N534        N544   1.329       .  A
H535        C560   1.081   1_545  S
N536        N557   1.318       .  A
N537        N555   1.322       .  A
N537        N542   1.345       .  A
N537      Co1482   2.155       .  S
C538        N542   1.371       .  A
C538        C566   1.466       .  S
C538        C705   1.510       .  S
N539        C554   1.348       .  A
N539       Co561   2.089       .  S
C540        N568   1.343       .  A
C540        H574   1.072       .  S
C540       C1495   1.441       .  S
C543       C1492   1.440       .  S
C543        C694   1.440       .  S
N544        N550   1.318       .  A
N545        C571   1.355       .  A
N545        N547   1.319       .  A
N545       Co561   2.168       .  S
N546        C560   1.351       .  A
N547        N575   1.331       .  A
N547       Co565   2.084       .  S
H548        C571   1.081       .  S
H549        C566   1.080       .  S
N551        C765   1.343       .  A
N551       N1009   1.300   1_565  A
N551       Co565   2.080       .  S
N552        N564   1.340       .  A
N552       N1044   1.315       .  A
N552       Co561   2.210   1_545  S
C553        N557   1.340       .  A
C553        C567   1.475       .  S
C553        C710   1.440       .  S
C554        H558   1.082       .  S
C554        C573   1.465       .  S
N555        C566   1.356       .  A
C559        N575   1.352       .  A
C559        C571   1.459       .  S
C559        C688   1.464       .  S
Co561      N1476   2.162       .  S
N562        C573   1.349       .  A
C563        C685   1.455       .  S
C567        H764   1.082       .  S
N568       N1028   1.328       .  A
N569       C1007   1.357       .  A
N569        N771   1.306   1_655  A
Cl572     Co1480   2.452       .  S
Cl572     Co1482   2.475       .  S
C573        C707   1.457       .  S
C576        N594   1.354       .  A
C576        C613   1.469       .  S
C576        C683   1.476       .  S
N577        N594   1.333       .  A
N577        N599   1.336       .  A
N577      Co1566   2.131   1_455  S
C578        N603   1.332       .  A
C578        H623   1.082       .  S
C578        C616   1.447       .  S
H579        C620   1.079       .  S
C580        N604   1.342       .  A
C580        H609   1.077       .  S
C580        C584   1.413   1_565  S
Co581       N589   2.068       .  S
Co581       N621   2.120   1_455  S
Co581       N597   2.091       .  S
Co581     Cl1577   2.373   1_455  S
N582        C620   1.366       .  A
N582        N589   1.324       .  A
N582       Co583   2.200       .  S
Co583      N1538   2.021   1_455  S
Co583       N603   2.115       .  S
Co583      N1542   2.132   1_455  S
Co583     Cl1577   2.392   1_455  S
C584       N1098   1.345       .  A
C584        C691   1.445       .  S
N585        N592   1.309       .  A
N585        N615   1.333       .  A
N585       Co618   2.138       .  S
N586       N1574   1.325       .  A
N586      Co1535   2.034       .  S
N587        C616   1.372       .  A
N587        N597   1.337       .  A
H588        C613   1.081       .  S
N589        N610   1.329       .  A
N590        N608   1.344       .  A
N590        N595   1.319       .  A
N590      Co1535   2.128       .  S
C591        N595   1.345       .  A
C591        C619   1.453       .  S
C591        C700   1.418       .  S
N592        C607   1.342       .  A
N592       Co614   2.055       .  S
C593        N621   1.366       .  A
C593        H627   1.077       .  S
C593       C1548   1.475       .  S
C596       C1545   1.473       .  S
C596        C698   1.432       .  S
N597        N603   1.318       .  A
N598        C624   1.355       .  A
N598        N600   1.323       .  A
N598       Co614   2.138       .  S
N599        C613   1.353       .  A
N600        N628   1.326       .  A
N600       Co618   2.112       .  S
H601        C624   1.080       .  S
H602        C619   1.082       .  S
N604       Co618   2.039       .  S
N605        N617   1.322       .  A
N605       N1097   1.310       .  A
N605       Co614   2.129   1_545  S
C606        N610   1.345       .  A
C606        C620   1.494       .  S
C606        C704   1.492       .  S
C607        H611   1.082       .  S
C607        C626   1.460       .  S
N608        C619   1.336       .  A
C612        N628   1.348       .  A
C612        C624   1.475       .  S
C612        C682   1.459       .  S
Co614      N1529   2.131       .  S
N615        C626   1.359       .  A
C616        C680   1.463       .  S
N621       N1081   1.307       .  A
N622       C1060   1.335       .  A
N622       N1538   1.323       .  A
Cl625     Co1533   2.375       .  S
Cl625     Co1535   2.394       .  S
C626        C702   1.460       .  S
C629        C631   1.560       .  S
C629        C633   1.569       .  S
C629        C632   1.572       .  S
C629        C675   1.594       .  S
C630        C634   1.562       .  S
C630        C636   1.548       .  S
C630        C635   1.535       .  S
C630        C678   1.580       .  S
C631        C639   1.387       .  A
C631        C634   1.420       .  A
C632        C643   1.398       .  A
C632        C635   1.419       .  A
C633        C647   1.394       .  A
C633        C636   1.420       .  A
C634        C637   1.392       .  A
C635        C641   1.370       .  A
C636        C644   1.380       .  A
C637        N638   1.366       .  A
C637        H650   1.082       .  S
N638        C639   1.362       .  A
N638        C690   1.426       .  S
C639        H640   1.082       .  S
C641        N642   1.349       .  A
C641        H651   1.082       .  S
N642        C643   1.369       .  A
N642        C686   1.415       .  S
C643        H649   1.082       .  S
C644        N645   1.357       .  A
C644        H646   1.083       .  S
N645        C647   1.368       .  A
N645        C687   1.421       .  S
C647        H648   1.082       .  S
C652        C654   1.549       .  S
C652        C656   1.557       .  S
C652        C655   1.549       .  S
C652        C915   1.580       .  S
C653        C657   1.573       .  S
C653        C659   1.552       .  S
C653        C658   1.573       .  S
C653        C676   1.594       .  S
C654        C662   1.383       .  A
C654        C657   1.418       .  A
C655        C666   1.382       .  A
C655        C658   1.420       .  A
C656        C670   1.388       .  A
C656        C659   1.419       .  A
C657        C660   1.399       .  A
C658        C664   1.395       .  A
C659        C667   1.382       .  A
C660        N661   1.370       .  A
C660        H673   1.082       .  S
N661        C662   1.359       .  A
N661        C684   1.428       .  S
C662        H663   1.083       .  S
C664        N665   1.368       .  A
C664        H674   1.083       .  S
N665        C666   1.357       .  A
N665        C679   1.424       .  S
C666        H672   1.081       .  S
C667        N668   1.359       .  A
C667        H669   1.083       .  S
N668        C670   1.363       .  A
N668        C681   1.418       .  S
C670        H671   1.082       .  S
C675        C676   1.277       .  T
C677        C890   1.580       .  S
C677        C678   1.269       .  T
C679        C680   1.224       .  T
C681        C682   1.220       .  T
C683        C684   1.229       .  T
C685        C686   1.218       .  T
C687        C688   1.223       .  T
C689        C690   1.227       .  T
C691        C692   1.205       .  T
C693        C694   1.203       .  T
C695        C696   1.209       .  T
C697        C698   1.207       .  T
C699        C700   1.194       .  T
C701        C702   1.221       .  T
C703        C704   1.240       .  T
C705        C706   1.250       .  T
C707        C708   1.218       .  T
C708        N731   1.416       .  S
C709        N728   1.406       .  S
C709        C710   1.210       .  T
C711        C712   1.283       .  T
C713        C714   1.281       .  T
C715        C717   1.582       .  S
C715        C719   1.560       .  S
C715        C718   1.531       .  S
C715        C952   1.593       .  S
C716        C720   1.588       .  S
C716        C722   1.545       .  S
C716        C721   1.556       .  S
C716        C950   1.595       .  S
C717        C725   1.402       .  A
C718        C729   1.373       .  A
C719        C733   1.390       .  A
C720        C723   1.407       .  A
C721        C727   1.388       .  A
C722        C730   1.379       .  A
C723        N724   1.373       .  A
C723        H736   1.082       .  S
N724        C944   1.462       .  S
C725        H726   1.082       .  S
C727        H737   1.082       .  S
N728        C729   1.350       .  A
C729        H735   1.083       .  S
C730        H732   1.083       .  S
N731        C733   1.364       .  A
C733        H734   1.082       .  S
C738        C740   1.553       .  S
C738        C742   1.567       .  S
C738        C741   1.577       .  S
C738        C949   1.595       .  S
C739        C743   1.531       .  S
C739        C745   1.554       .  S
C739        C744   1.585       .  S
C739        C951   1.593       .  S
C740        C748   1.389       .  A
C740        C743   1.410       .  A
C741        C752   1.399       .  A
C741        C744   1.429       .  A
C742        C756   1.393       .  A
C742        C745   1.421       .  A
C743        C746   1.371       .  A
C744        C750   1.404       .  A
C745        C753   1.383       .  A
C746        N747   1.350       .  A
C746        H759   1.083       .  S
N747        C748   1.363       .  A
N747        C937   1.407       .  S
C748        H749   1.082       .  S
C750        N751   1.374       .  A
C750        H760   1.082       .  S
N751        C752   1.369       .  A
N751        C941   1.448       .  S
C752        H758   1.082       .  S
C753        N754   1.360       .  A
C753        H755   1.083       .  S
N754        C756   1.365       .  A
N754        C939   1.421       .  S
C756        H757   1.082       .  S
C761        N779   1.353       .  A
C761        C798   1.464       .  S
C761        C927   1.474       .  S
N762        N779   1.334       .  A
N762        N784   1.331       .  A
N762      Co1751   2.165   1_455  S
C763        N788   1.351       .  A
C763        H808   1.082       .  S
C763        C801   1.471       .  S
C765        H794   1.081       .  S
C765        C769   1.416       .  S
Co766       N774   2.056       .  S
Co766       N806   2.067       .  S
Co766       N782   2.138       .  S
Co766     Cl1762   2.453       .  S
N767        C805   1.352   1_556  A
N767        N774   1.327       .  A
N767       Co768   2.150       .  S
Co768       N771   2.098   1_556  S
Co768       N788   2.091       .  S
Co768      N1727   2.118   1_455  S
Co768     Cl1762   2.469       .  S
C769       N1283   1.345   1_565  A
C769        C933   1.450       .  S
N770        N777   1.312       .  A
N770        N800   1.330       .  A
N770       Co803   2.096       .  S
N771       N1265   1.293   1_455  A
N772        C801   1.348       .  A
N772        N782   1.330       .  A
H773        C798   1.081   1_545  S
N774        N795   1.318       .  A
N775        N793   1.320       .  A
N775        N780   1.346       .  A
N775      Co1720   2.112       .  S
C776        N780   1.368       .  A
C776        C804   1.472       .  S
C776        C943   1.522       .  S
N777        C792   1.349       .  A
N777       Co799   2.096       .  S
C778        N806   1.344       .  A
C778        H812   1.071       .  S
C778       C1733   1.439       .  S
C781       C1730   1.435       .  S
C781        C932   1.437       .  S
N782        N788   1.316       .  A
N783        C809   1.354       .  A
N783        N785   1.317       .  A
N783       Co799   2.152       .  S
N784        C798   1.352       .  A
N785        N813   1.327       .  A
N785       Co803   2.071       .  S
H786        C809   1.080       .  S
H787        C804   1.078       .  S
N789       N1247   1.307   1_565  A
N789       Co803   2.033   1_554  S
N790        N802   1.340       .  A
N790       N1282   1.314       .  A
N790       Co799   2.214   1_545  S
C791        N795   1.339       .  A
C791        C805   1.478   1_556  S
C791        C948   1.445       .  S
C792        H796   1.082       .  S
C792        C811   1.465       .  S
N793        C804   1.364       .  A
C797        N813   1.347       .  A
C797        C809   1.462       .  S
C797        C926   1.452       .  S
Co799      N1714   2.160       .  S
N800        C811   1.348       .  A
C801        C923   1.464       .  S
N806       N1266   1.329       .  A
N807       C1245   1.369       .  A
Cl810     Co1718   2.458       .  S
Cl810     Co1720   2.472       .  S
C811        C945   1.457       .  S
C814        N832   1.353       .  A
C814        C851   1.470       .  S
C814        C921   1.479       .  S
N815        N832   1.333       .  A
N815        N837   1.336       .  A
N815      Co1804   2.130   1_455  S
C816        N841   1.336       .  A
C816        H861   1.082       .  S
C816        C854   1.446       .  S
H817        C858   1.081       .  S
C818        N842   1.342       .  A
C818        H847   1.071       .  S
C818        C822   1.410   1_565  S
Co819       N827   2.081       .  S
Co819       N859   2.125   1_455  S
Co819       N835   2.121       .  S
Co819     Cl1815   2.596   1_455  S
N820        C858   1.374       .  A
N820        N827   1.331       .  A
N820       Co821   2.223       .  S
Co821      N1776   2.036   1_455  S
Co821       N841   2.048       .  S
Co821      N1780   2.132   1_455  S
Co821     Cl1815   2.380   1_455  S
C822       N1336   1.346       .  A
C822        C929   1.445       .  S
N823        N830   1.308       .  A
N823        N853   1.333       .  A
N823       Co856   2.142       .  S
N824       N1812   1.324       .  A
N824      Co1773   2.031       .  S
N825        C854   1.367       .  A
N825        N835   1.338       .  A
H826        C851   1.081       .  S
N827        N848   1.327       .  A
N828        N846   1.343       .  A
N828        N833   1.322       .  A
N828      Co1773   2.128       .  S
C829        N833   1.346       .  A
C829        C857   1.464       .  S
C829        C938   1.444       .  S
N830        C845   1.343       .  A
N830       Co852   2.056       .  S
C831        N859   1.354       .  A
C831        H865   1.071       .  S
C831       C1786   1.476       .  S
C834       C1783   1.475       .  S
C834        C936   1.440       .  S
N835        N841   1.310       .  A
N836        C862   1.358       .  A
N836        N838   1.324       .  A
N836       Co852   2.144       .  S
N837        C851   1.355       .  A
N838        N866   1.326       .  A
N838       Co856   2.119       .  S
H839        C862   1.081       .  S
H840        C857   1.082       .  S
N842       Co856   2.042       .  S
N843        N855   1.320       .  A
N843       N1335   1.310       .  A
N843       Co852   2.124   1_545  S
C844        N848   1.339       .  A
C844        C858   1.504       .  S
C844        C942   1.500       .  S
C845        H849   1.082       .  S
C845        C864   1.462       .  S
N846        C857   1.345       .  A
C850        N866   1.348       .  A
C850        C862   1.483       .  S
C850        C920   1.469       .  S
Co852      N1767   2.133       .  S
N853        C864   1.360       .  A
C854        C918   1.467       .  S
N859       N1319   1.301       .  A
N860       C1298   1.340       .  A
N860       N1776   1.325       .  A
Cl863     Co1771   2.593       .  S
Cl863     Co1773   2.379       .  S
C864        C940   1.463       .  S
C867        C869   1.564       .  S
C867        C871   1.557       .  S
C867        C870   1.578       .  S
C867        C913   1.594       .  S
C868        C872   1.560       .  S
C868        C874   1.548       .  S
C868        C873   1.539       .  S
C868        C916   1.580       .  S
C869        C877   1.390       .  A
C869        C872   1.420       .  A
C870        C881   1.401       .  A
C870        C873   1.420       .  A
C871        C885   1.386       .  A
C871        C874   1.418       .  A
C872        C875   1.391       .  A
C873        C879   1.373       .  A
C874        C882   1.379       .  A
C875        N876   1.365       .  A
C875        H888   1.082       .  S
N876        C877   1.364       .  A
N876        C928   1.428       .  S
C877        H878   1.082       .  S
C879        N880   1.351       .  A
C879        H889   1.082       .  S
N880        C881   1.372       .  A
N880        C924   1.421       .  S
C881        H887   1.082       .  S
C882        N883   1.358       .  A
C882        H884   1.083       .  S
N883        C885   1.362       .  A
N883        C925   1.413       .  S
C885        H886   1.083       .  S
C890        C892   1.551       .  S
C890        C894   1.559       .  S
C890        C893   1.555       .  S
C891        C895   1.570       .  S
C891        C897   1.562       .  S
C891        C896   1.570       .  S
C891        C914   1.593       .  S
C892        C900   1.385       .  A
C892        C895   1.416       .  A
C893        C904   1.387       .  A
C893        C896   1.420       .  A
C894        C908   1.389       .  A
C894        C897   1.420       .  A
C895        C898   1.398       .  A
C896        C902   1.394       .  A
C897        C905   1.389       .  A
C898        N899   1.369       .  A
C898        H911   1.082       .  S
N899        C900   1.360       .  A
N899        C922   1.430       .  S
C900        H901   1.083       .  S
C902        N903   1.367       .  A
C902        H912   1.082       .  S
N903        C904   1.360       .  A
N903        C917   1.426       .  S
C904        H910   1.082       .  S
C905        N906   1.364       .  A
C905        H907   1.083       .  S
N906        C908   1.363       .  A
N906        C919   1.425       .  S
C908        H909   1.082       .  S
C913        C914   1.277       .  T
C915        C916   1.269   1_554  T
C917        C918   1.226       .  T
C919        C920   1.226       .  T
C921        C922   1.231       .  T
C923        C924   1.223       .  T
C925        C926   1.216       .  T
C927        C928   1.228       .  T
C929        C930   1.205       .  T
C931        C932   1.202       .  T
C933        C934   1.210       .  T
C935        C936   1.213       .  T
C937        C938   1.211       .  T
C939        C940   1.222       .  T
C941        C942   1.246       .  T
C943        C944   1.257       .  T
C945        C946   1.219       .  T
C947        C948   1.213       .  T
C949        C950   1.278       .  T
C951        C952   1.277       .  T
C953        C955   1.576       .  S
C953        C957   1.574       .  S
C953        C956   1.567       .  S
C953       C1190   1.598       .  S
C954        C958   1.561       .  S
C954        C960   1.536       .  S
C954        C959   1.556       .  S
C954       C1188   1.583       .  S
C955        C963   1.398       .  A
C955       C1196   1.421   1_554  A
C956        C967   1.392       .  A
C956       C1197   1.421   1_554  A
C957        C971   1.401       .  A
C957       C1198   1.414   1_554  A
C958       C1193   1.425       .  A
C958        C961   1.389       .  A
C959       C1194   1.419       .  A
C959        C965   1.387       .  A
C960       C1195   1.416       .  A
C960        C968   1.374       .  A
C961        N962   1.363       .  A
C961        H974   1.082       .  S
N962       C1201   1.371       .  A
N962       C1182   1.435       .  S
C963       N1200   1.370   1_554  A
C963        H964   1.082       .  S
C965       N1204   1.363       .  A
C965        H975   1.083       .  S
N966       C1203   1.365       .  A
N966        C967   1.364   1_556  A
N966       C1423   1.428       .  S
C967        H973   1.082       .  S
C968       N1207   1.351       .  A
C968        H970   1.081       .  S
N969       C1206   1.350       .  A
N969        C971   1.371   1_556  A
N969       C1422   1.418       .  S
C971        H972   1.086       .  S
C976        C978   1.556       .  S
C976        C980   1.560       .  S
C976        C979   1.555       .  S
C976       C1187   1.583       .  S
C977        C981   1.557       .  S
C977        C983   1.585       .  S
C977        C982   1.567       .  S
C977       C1189   1.598       .  S
C978        C986   1.389       .  A
C978        C981   1.415       .  A
C979        C990   1.387       .  A
C979        C982   1.419       .  A
C980        C994   1.391       .  A
C980        C983   1.423       .  A
C981        C984   1.389       .  A
C982        C988   1.393       .  A
C983        C991   1.405       .  A
C984        N985   1.362       .  A
C984        H997   1.083       .  S
N985        C986   1.363       .  A
N985       C1175   1.424       .  S
C986        H987   1.083       .  S
C988        N989   1.366       .  A
C988        H998   1.083       .  S
N989        C990   1.361       .  A
N989       C1179   1.426       .  S
C990        H996   1.082       .  S
C991        N992   1.374       .  A
C991        H993   1.082       .  S
N992        C994   1.362       .  A
N992       C1177   1.440       .  S
C994        H995   1.081       .  S
C999       N1017   1.356       .  A
C999       C1036   1.449       .  S
C999       C1165   1.452       .  S
N1000      N1017   1.332       .  A
N1000      N1022   1.321       .  A
C1001      N1026   1.344       .  A
C1001      H1046   1.082       .  S
C1001      C1039   1.465       .  S
H1002      C1281   1.082       .  S
C1003      N1265   1.333       .  A
C1003      H1032   1.082       .  S
C1003      C1007   1.421       .  S
Co1004     N1498   2.081   1_545  S
Co1004     N1012   2.086       .  S
Co1004     N1044   2.038       .  S
Co1004     N1020   2.090       .  S
N1005      C1043   1.354       .  A
N1005      N1012   1.321       .  A
N1005     Co1006   2.122       .  S
Co1006     N1009   2.082       .  S
Co1006     N1026   2.165       .  S
C1007      C1171   1.445       .  S
N1008      N1015   1.314       .  A
N1008      N1038   1.327       .  A
N1008     Co1041   2.103       .  S
N1009      N1283   1.310       .  A
N1010      C1039   1.359       .  A
N1010      N1020   1.332       .  A
H1011      C1036   1.081       .  S
N1012      N1033   1.326       .  A
N1013      N1031   1.338       .  A
N1013      N1018   1.336       .  A
C1014      N1018   1.359       .  A
C1014      C1042   1.468       .  S
C1014      C1181   1.483       .  S
N1015      C1030   1.352       .  A
N1015     Co1037   2.094       .  S
C1016      N1044   1.367       .  A
C1016      H1050   1.078       .  S
C1019      N1516   1.347       .  A
C1019      C1170   1.439       .  S
N1020      N1026   1.329       .  A
N1021      C1047   1.360       .  A
N1021      N1023   1.314       .  A
N1021     Co1037   2.179       .  S
N1022      C1036   1.340       .  A
N1022     Co1480   2.064       .  S
N1023      N1051   1.328       .  A
N1023     Co1041   2.020       .  S
H1024      C1047   1.075       .  S
H1025      C1042   1.081       .  S
N1027      C1241   1.343   1_655  A
N1027     Co1041   2.042       .  S
N1028      N1040   1.329   1_455  A
N1028     Co1037   2.124   1_455  S
C1029      N1033   1.348       .  A
C1029      C1043   1.479       .  S
C1029      C1186   1.467       .  S
C1030      H1034   1.082       .  S
C1030      C1049   1.478       .  S
N1031      C1042   1.357       .  A
N1031     Co1517   2.254   1_545  S
C1035      N1051   1.344       .  A
C1035      C1047   1.476       .  S
C1035      C1164   1.472       .  S
Co1037    Cl1524   2.439   1_655  S
N1038      C1049   1.347       .  A
C1039      C1161   1.461       .  S
N1040      C1495   1.340   1_655  A
Co1041     N1507   2.148       .  S
Co1041    Cl1524   2.392   1_655  S
C1043      H1240   1.082       .  S
N1045      N1247   1.311       .  A
Cl1048    Co1513   2.533   1_445  S
Cl1048    Co1517   2.395   1_445  S
C1049      C1183   1.461       .  S
C1052      N1070   1.351       .  A
C1052      C1089   1.470       .  S
C1052      C1159   1.468       .  S
N1053      N1070   1.330       .  A
N1053      N1075   1.332       .  A
C1054      N1079   1.336       .  A
C1054      H1099   1.082       .  S
C1054      C1092   1.451       .  S
H1055      C1096   1.081       .  S
C1056      N1080   1.360       .  A
C1056      H1085   1.078       .  S
C1056      C1060   1.443       .  S
Co1057     N1551   2.136   1_545  S
Co1057     N1065   2.093       .  S
Co1057     N1097   2.085       .  S
Co1057     N1073   2.081       .  S
N1058      C1096   1.355       .  A
N1058      N1065   1.324       .  A
N1058     Co1059   2.132       .  S
Co1059     N1079   2.131       .  S
C1060      C1167   1.434       .  S
N1061      N1068   1.324       .  A
N1061      N1091   1.344       .  A
N1061     Co1094   2.186       .  S
N1062      N1556   1.313   1_545  A
N1063      C1092   1.362       .  A
N1063      N1073   1.332       .  A
H1064      C1089   1.081       .  S
N1065      N1086   1.326       .  A
N1066      N1084   1.341       .  A
N1066      N1071   1.332       .  A
C1067      N1071   1.354       .  A
C1067      C1095   1.467       .  S
C1067      C1176   1.468       .  S
N1068      C1083   1.343       .  A
N1068     Co1090   2.063       .  S
C1069      N1097   1.368       .  A
C1069      H1103   1.079       .  S
C1072      N1569   1.342       .  A
C1072      C1174   1.438       .  S
N1073      N1079   1.325       .  A
N1074      C1100   1.352       .  A
N1074      N1076   1.323       .  A
N1074     Co1090   2.088       .  S
N1075      C1089   1.353       .  A
N1075     Co1533   2.136       .  S
N1076      N1104   1.317       .  A
N1076     Co1094   2.117       .  S
H1077      C1100   1.081       .  S
H1078      C1095   1.082       .  S
N1080      N1538   1.335       .  A
N1080     Co1094   2.050       .  S
N1081      N1093   1.318       .  A
N1081     Co1090   2.104       .  S
C1082      N1086   1.347       .  A
C1082      C1096   1.482       .  S
C1082      C1180   1.470       .  S
C1083      H1087   1.082       .  S
C1083      C1102   1.449       .  S
N1084      C1095   1.356       .  A
N1084     Co1570   2.242   1_545  S
C1088      N1104   1.340       .  A
C1088      C1100   1.478       .  S
C1088      C1158   1.440       .  S
Co1090    Cl1577   2.274       .  S
N1091      C1102   1.372       .  A
C1092      C1156   1.446       .  S
N1093      C1548   1.334       .  A
Co1094     N1560   2.145       .  S
Co1094    Cl1577   2.480       .  S
Cl1101    Co1566   2.330   1_545  S
Cl1101    Co1570   2.411   1_545  S
C1102      C1178   1.490       .  S
C1105      C1107   1.544       .  S
C1105      C1109   1.563       .  S
C1105      C1108   1.562       .  S
C1105      C1151   1.587       .  S
C1106      C1110   1.562       .  S
C1106      C1112   1.564       .  S
C1106      C1111   1.550       .  S
C1106      C1154   1.591       .  S
C1107      C1115   1.377       .  A
C1107      C1110   1.418       .  A
C1108      C1119   1.390       .  A
C1108      C1111   1.420       .  A
C1109      C1123   1.391       .  A
C1109      C1112   1.422       .  A
C1110      C1113   1.391       .  A
C1111      C1117   1.380       .  A
C1112      C1120   1.389       .  A
C1113      N1114   1.365       .  A
C1113      H1126   1.082       .  S
N1114      C1115   1.355       .  A
N1114      C1166   1.414       .  S
C1115      H1116   1.083       .  S
C1117      N1118   1.358       .  A
C1117      H1127   1.082       .  S
N1118      C1119   1.365       .  A
N1118      C1162   1.419       .  S
C1119      H1125   1.082       .  S
C1120      N1121   1.364       .  A
C1120      H1122   1.083       .  S
N1121      C1123   1.365       .  A
N1121      C1163   1.427       .  S
C1123      H1124   1.082       .  S
C1128      C1130   1.567       .  S
C1128      C1132   1.546       .  S
C1128      C1131   1.548       .  S
C1128      C1391   1.586       .  S
C1129      C1133   1.562       .  S
C1129      C1135   1.543       .  S
C1129      C1134   1.555       .  S
C1129      C1152   1.587       .  S
C1130      C1138   1.390       .  A
C1130      C1133   1.425       .  A
C1131      C1142   1.380       .  A
C1131      C1134   1.420       .  A
C1132      C1146   1.381       .  A
C1132      C1135   1.419       .  A
C1133      C1136   1.388       .  A
C1134      C1140   1.381       .  A
C1135      C1143   1.376       .  A
C1136      N1137   1.363       .  A
C1136      H1149   1.083       .  S
N1137      C1138   1.365       .  A
N1137      C1160   1.424       .  S
C1138      H1139   1.082       .  S
C1140      N1141   1.361       .  A
C1140      H1150   1.083       .  S
N1141      C1142   1.357       .  A
N1141      C1155   1.410       .  S
C1142      H1148   1.082       .  S
C1143      N1144   1.356       .  A
C1143      H1145   1.083       .  S
N1144      C1146   1.356       .  A
N1144      C1157   1.406       .  S
C1146      H1147   1.082       .  S
C1151      C1152   1.273       .  T
C1153      C1366   1.591       .  S
C1153      C1154   1.275       .  T
C1155      C1156   1.213       .  T
C1157      C1158   1.210       .  T
C1159      C1160   1.225       .  T
C1161      C1162   1.221       .  T
C1163      C1164   1.228       .  T
C1165      C1166   1.216       .  T
C1167      C1168   1.201       .  T
C1168      C1645   1.403       .  S
C1169      C1170   1.204       .  T
C1169      C1644   1.406       .  S
C1171      C1172   1.208       .  T
C1172      C1649   1.410       .  S
C1173      C1174   1.207       .  T
C1173      C1648   1.414   1_545  S
C1175      C1176   1.225       .  T
C1177      C1178   1.239       .  T
C1179      C1180   1.226       .  T
C1181      C1182   1.234       .  T
C1183      C1184   1.221       .  T
C1184      N1207   1.419       .  S
C1185      N1204   1.423       .  S
C1185      C1186   1.224       .  T
C1187      C1188   1.271       .  T
C1189      C1190   1.280       .  T
C1191      C1193   1.580       .  S
C1191      C1195   1.572       .  S
C1191      C1194   1.562       .  S
C1191      C1428   1.601       .  S
C1192      C1196   1.555       .  S
C1192      C1198   1.529       .  S
C1192      C1197   1.561       .  S
C1192      C1426   1.579       .  S
C1193      C1201   1.400       .  A
C1194      C1205   1.390       .  A
C1195      C1209   1.398       .  A
C1196      C1199   1.387       .  A
C1197      C1203   1.390       .  A
C1198      C1206   1.372       .  A
C1199      N1200   1.362       .  A
C1199      H1212   1.082       .  S
N1200      C1420   1.431       .  S
C1201      H1202   1.082       .  S
C1203      H1213   1.082       .  S
N1204      C1205   1.363       .  A
C1205      H1211   1.082       .  S
C1206      H1208   1.055       .  S
N1207      C1209   1.370       .  A
C1209      H1210   1.082       .  S
C1214      C1216   1.556       .  S
C1214      C1218   1.564       .  S
C1214      C1217   1.546       .  S
C1214      C1425   1.579       .  S
C1215      C1219   1.554       .  S
C1215      C1221   1.592       .  S
C1215      C1220   1.569       .  S
C1215      C1427   1.600       .  S
C1216      C1224   1.391       .  A
C1216      C1219   1.414       .  A
C1217      C1228   1.381       .  A
C1217      C1220   1.417       .  A
C1218      C1232   1.396       .  A
C1218      C1221   1.424       .  A
C1219      C1222   1.386       .  A
C1220      C1226   1.394       .  A
C1221      C1229   1.410       .  A
C1222      N1223   1.360       .  A
C1222      H1235   1.083       .  S
N1223      C1224   1.364       .  A
N1223      C1413   1.423       .  S
C1224      H1225   1.082       .  S
C1226      N1227   1.368       .  A
C1226      H1236   1.082       .  S
N1227      C1228   1.357       .  A
N1227      C1417   1.422       .  S
C1228      H1234   1.082       .  S
C1229      N1230   1.376       .  A
C1229      H1231   1.086       .  S
N1230      C1232   1.366       .  A
N1230      C1415   1.447       .  S
C1232      H1233   1.057       .  S
C1237      N1255   1.352       .  A
C1237      C1274   1.448       .  S
C1237      C1403   1.439       .  S
N1238      N1255   1.329       .  A
N1238      N1260   1.321       .  A
C1239      N1264   1.345       .  A
C1239      H1284   1.082       .  S
C1239      C1277   1.465       .  S
C1241      H1270   1.077   1_455  S
C1241      C1245   1.428       .  S
Co1242     N1736   2.081   1_545  S
Co1242     N1250   2.081       .  S
Co1242     N1282   2.038       .  S
Co1242     N1258   2.082       .  S
N1243      C1281   1.357   1_556  A
N1243      N1250   1.322       .  A
N1243     Co1244   2.133       .  S
Co1244     N1247   2.085   1_556  S
Co1244     N1264   2.168       .  S
C1245      C1409   1.462   1_455  S
N1246      N1253   1.315       .  A
N1246      N1276   1.324       .  A
N1246     Co1279   2.087       .  S
N1248      C1277   1.358       .  A
N1248      N1258   1.331       .  A
H1249      C1274   1.081       .  S
N1250      N1271   1.326       .  A
N1251      N1269   1.341       .  A
N1251      N1256   1.335       .  A
C1252      N1256   1.358       .  A
C1252      C1280   1.469       .  S
C1252      C1419   1.478       .  S
N1253      C1268   1.356       .  A
N1253     Co1275   2.117       .  S
C1254      N1282   1.368       .  A
C1254      H1288   1.079       .  S
C1257      N1754   1.347       .  A
C1257      C1408   1.440       .  S
N1258      N1264   1.329       .  A
N1259      C1285   1.357       .  A
N1259      N1261   1.313       .  A
N1259     Co1275   2.172       .  S
N1260      C1274   1.338       .  A
N1260     Co1718   2.056       .  S
N1261      N1289   1.325       .  A
N1261     Co1279   2.017       .  S
H1262      C1285   1.075       .  S
H1263      C1280   1.081       .  S
N1265     Co1279   2.100   1_554  S
N1266      N1278   1.332   1_455  A
N1266     Co1275   2.120   1_455  S
C1267      N1271   1.346       .  A
C1267      C1281   1.482   1_556  S
C1267      C1424   1.472       .  S
C1268      H1272   1.080       .  S
C1268      C1287   1.483       .  S
N1269      C1280   1.356       .  A
N1269     Co1755   2.238   1_545  S
C1273      N1289   1.340       .  A
C1273      C1285   1.471       .  S
C1273      C1402   1.460       .  S
Co1275    Cl1762   2.426   1_655  S
N1276      C1287   1.339       .  A
C1277      C1399   1.459       .  S
N1278      C1733   1.338   1_655  A
Co1279     N1745   2.197       .  S
Co1279    Cl1762   2.345   1_655  S
Cl1286    Co1751   2.537       .  S
Cl1286    Co1755   2.409       .  S
C1287      C1421   1.458       .  S
C1290      N1308   1.351       .  A
C1290      C1327   1.453       .  S
C1290      C1397   1.448       .  S
N1291      N1308   1.329       .  A
N1291      N1313   1.326       .  A
C1292      N1317   1.337       .  A
C1292      H1337   1.082       .  S
C1292      C1330   1.453       .  S
H1293      C1334   1.082       .  S
C1294      N1318   1.357       .  A
C1294      H1323   1.079       .  S
C1294      C1298   1.445       .  S
Co1295     N1789   2.138   1_545  S
Co1295     N1303   2.086       .  S
Co1295     N1335   2.086       .  S
Co1295     N1311   2.078       .  S
N1296      C1334   1.354       .  A
N1296      N1303   1.325       .  A
N1296     Co1297   2.132       .  S
Co1297     N1317   2.139       .  S
C1298      C1405   1.434       .  S
N1299      N1306   1.319       .  A
N1299      N1329   1.347       .  A
N1299     Co1332   2.204       .  S
N1300      N1794   1.314   1_545  A
N1301      C1330   1.361       .  A
N1301      N1311   1.332       .  A
H1302      C1327   1.082       .  S
N1303      N1324   1.325       .  A
N1304      N1322   1.342       .  A
N1304      N1309   1.330       .  A
C1305      N1309   1.352       .  A
C1305      C1333   1.469       .  S
C1305      C1414   1.466       .  S
N1306      C1321   1.346       .  A
N1306     Co1328   2.038       .  S
C1307      N1335   1.370       .  A
C1307      H1341   1.080       .  S
C1310      N1807   1.337       .  A
C1310      C1412   1.436       .  S
N1311      N1317   1.326       .  A
N1312      C1338   1.359       .  A
N1312      N1314   1.323       .  A
N1312     Co1328   2.134       .  S
N1313      C1327   1.344       .  A
N1313     Co1771   2.137       .  S
N1314      N1342   1.318       .  A
N1314     Co1332   2.103       .  S
H1315      C1338   1.081       .  S
H1316      C1333   1.082       .  S
N1318      N1776   1.333       .  A
N1318     Co1332   2.049       .  S
N1319      N1331   1.326       .  A
N1319     Co1328   2.064       .  S
C1320      N1324   1.345       .  A
C1320      C1334   1.482       .  S
C1320      C1418   1.464       .  S
C1321      H1325   1.082       .  S
C1321      C1340   1.448       .  S
N1322      C1333   1.356       .  A
N1322     Co1808   2.244   1_545  S
C1326      N1342   1.338       .  A
C1326      C1338   1.483       .  S
C1326      C1396   1.450       .  S
Co1328    Cl1815   2.319       .  S
N1329      C1340   1.372       .  A
C1330      C1394   1.448       .  S
N1331      C1786   1.323       .  A
Co1332     N1798   2.151       .  S
Co1332    Cl1815   2.559       .  S
Cl1339    Co1804   2.331       .  S
Cl1339    Co1808   2.414       .  S
C1340      C1416   1.500       .  S
C1343      C1345   1.540       .  S
C1343      C1347   1.554       .  S
C1343      C1346   1.562       .  S
C1343      C1389   1.583       .  S
C1344      C1348   1.548       .  S
C1344      C1350   1.566       .  S
C1344      C1349   1.551       .  S
C1344      C1392   1.586       .  S
C1345      C1353   1.375       .  A
C1345      C1348   1.415       .  A
C1346      C1357   1.388       .  A
C1346      C1349   1.422       .  A
C1347      C1361   1.383       .  A
C1347      C1350   1.423       .  A
C1348      C1351   1.381       .  A
C1349      C1355   1.380       .  A
C1350      C1358   1.389       .  A
C1351      N1352   1.359       .  A
C1351      H1364   1.083       .  S
N1352      C1353   1.354       .  A
N1352      C1404   1.404       .  S
C1353      H1354   1.082       .  S
C1355      N1356   1.358       .  A
C1355      H1365   1.083       .  S
N1356      C1357   1.364       .  A
N1356      C1400   1.417       .  S
C1357      H1363   1.082       .  S
C1358      N1359   1.365       .  A
C1358      H1360   1.082       .  S
N1359      C1361   1.359       .  A
N1359      C1401   1.420       .  S
C1361      H1362   1.083       .  S
C1366      C1368   1.564       .  S
C1366      C1370   1.560       .  S
C1366      C1369   1.554       .  S
C1367      C1371   1.544       .  S
C1367      C1373   1.544       .  S
C1367      C1372   1.549       .  S
C1367      C1390   1.583       .  S
C1368      C1376   1.388       .  A
C1368      C1371   1.422       .  A
C1369      C1380   1.384       .  A
C1369      C1372   1.422       .  A
C1370      C1384   1.389       .  A
C1370      C1373   1.422       .  A
C1371      C1374   1.376       .  A
C1372      C1378   1.377       .  A
C1373      C1381   1.375       .  A
C1374      N1375   1.355       .  A
C1374      H1387   1.082       .  S
N1375      C1376   1.364       .  A
N1375      C1398   1.411       .  S
C1376      H1377   1.083       .  S
C1378      N1379   1.358       .  A
C1378      H1388   1.083       .  S
N1379      C1380   1.360       .  A
N1379      C1393   1.410       .  S
C1380      H1386   1.082       .  S
C1381      N1382   1.356       .  A
C1381      H1383   1.083       .  S
N1382      C1384   1.363       .  A
N1382      C1395   1.413       .  S
C1384      H1385   1.082       .  S
C1389      C1390   1.271       .  T
C1391      C1392   1.272   1_554  T
C1393      C1394   1.213       .  T
C1395      C1396   1.216       .  T
C1397      C1398   1.214       .  T
C1399      C1400   1.219       .  T
C1401      C1402   1.221       .  T
C1403      C1404   1.208       .  T
C1405      C1406   1.200       .  T
C1406      C1883   1.401       .  S
C1407      C1408   1.204       .  T
C1407      C1882   1.406       .  S
C1409      C1410   1.217       .  T
C1410      C1887   1.423       .  S
C1411      C1412   1.209       .  T
C1411      C1886   1.418   1_545  S
C1413      C1414   1.224       .  T
C1415      C1416   1.244       .  T
C1417      C1418   1.223       .  T
C1419      C1420   1.231       .  T
C1421      C1422   1.220       .  T
C1423      C1424   1.228       .  T
C1425      C1426   1.269       .  T
C1427      C1428   1.281       .  T
C1429      C1431   1.593       .  S
C1429      C1433   1.559   1_554  S
C1429      C1432   1.531       .  S
C1429      C1666   1.597       .  S
C1430      C1434   1.593       .  S
C1430      C1436   1.548       .  S
C1430      C1435   1.555       .  S
C1430      C1664   1.600       .  S
C1431      C1439   1.410       .  A
C1431      C1672   1.433   1_554  A
C1432      C1443   1.374       .  A
C1432      C1673   1.411   1_554  A
C1433      C1447   1.391   1_556  A
C1433      C1674   1.417       .  A
C1434      C1669   1.432       .  A
C1434      C1437   1.408       .  A
C1435      C1670   1.412       .  A
C1435      C1441   1.387       .  A
C1436      C1671   1.418       .  A
C1436      C1444   1.381       .  A
C1437      N1438   1.376       .  A
C1437      H1450   1.082       .  S
N1438      C1677   1.371       .  A
N1438      C1658   1.454       .  S
C1439      N1676   1.376   1_554  A
C1439      H1440   1.082       .  S
C1441      N1680   1.363       .  A
C1441      H1451   1.082       .  S
N1442      C1679   1.366       .  A
N1442      C1443   1.349   1_556  A
N1442      C1899   1.410       .  S
C1443      H1449   1.083       .  S
C1444      N1683   1.357       .  A
C1444      H1446   1.083       .  S
N1445      C1682   1.360       .  A
N1445      C1447   1.364   1_556  A
N1445      C1898   1.422       .  S
C1447      H1448   1.082       .  S
C1452      C1454   1.543       .  S
C1452      C1456   1.564       .  S
C1452      C1455   1.576       .  S
C1452      C1663   1.600       .  S
C1453      C1457   1.523       .  S
C1453      C1459   1.554       .  S
C1453      C1458   1.583       .  S
C1453      C1665   1.597       .  S
C1454      C1462   1.381       .  A
C1454      C1457   1.411       .  A
C1455      C1466   1.394       .  A
C1455      C1458   1.433       .  A
C1456      C1470   1.388       .  A
C1456      C1459   1.424       .  A
C1457      C1460   1.364       .  A
C1458      C1464   1.400       .  A
C1459      C1467   1.382       .  A
C1460      N1461   1.346       .  A
C1460      H1473   1.083       .  S
N1461      C1462   1.358       .  A
N1461      C1651   1.393       .  S
C1462      H1463   1.082       .  S
C1464      N1465   1.371       .  A
C1464      H1474   1.082       .  S
N1465      C1466   1.366       .  A
N1465      C1655   1.439       .  S
C1466      H1472   1.082       .  S
C1467      N1468   1.360       .  A
C1467      H1469   1.083       .  S
N1468      C1470   1.363       .  A
N1468      C1653   1.418       .  S
C1470      H1471   1.082       .  S
C1475      N1493   1.352       .  A
C1475      C1512   1.462       .  S
C1475      C1641   1.473       .  S
N1476      N1493   1.334       .  A
N1476      N1498   1.331       .  A
C1477      N1502   1.347       .  A
C1477      H1522   1.082       .  S
C1477      C1515   1.467       .  S
H1478      C1757   1.082       .  S
C1479      N1741   1.346       .  A
C1479      H1508   1.072       .  S
C1479      C1483   1.415       .  S
Co1480     N1488   2.045       .  S
Co1480     N1520   2.068       .  S
Co1480     N1496   2.130       .  S
N1481      C1519   1.348       .  A
N1481      N1488   1.323       .  A
N1481     Co1482   2.136       .  S
Co1482     N1485   2.089       .  S
Co1482     N1502   2.074       .  S
C1483      C1647   1.451       .  S
N1484      N1491   1.310       .  A
N1484      N1514   1.330       .  A
N1484     Co1517   2.101       .  S
N1485      N1759   1.327       .  A
N1486      C1515   1.345       .  A
N1486      N1496   1.327       .  A
H1487      C1512   1.081       .  S
N1488      N1509   1.316       .  A
N1489      N1507   1.322       .  A
N1489      N1494   1.346       .  A
C1490      N1494   1.371       .  A
C1490      C1518   1.464       .  S
C1490      C1657   1.510       .  S
N1491      C1506   1.349       .  A
N1491     Co1513   2.093       .  S
C1492      N1520   1.346       .  A
C1492      H1526   1.069       .  S
C1495      C1646   1.440       .  S
N1496      N1502   1.316       .  A
N1497      C1523   1.356       .  A
N1497      N1499   1.319       .  A
N1497     Co1513   2.171       .  S
N1498      C1512   1.351       .  A
N1499      N1527   1.330       .  A
N1499     Co1517   2.083       .  S
H1500      C1523   1.079       .  S
H1501      C1518   1.080       .  S
N1503      C1717   1.343       .  A
N1503     Co1517   2.081       .  S
N1504      N1516   1.339       .  A
N1504     Co1513   2.208   1_545  S
C1505      N1509   1.339       .  A
C1505      C1519   1.475       .  S
C1505      C1662   1.436       .  S
C1506      H1510   1.082       .  S
C1506      C1525   1.466       .  S
N1507      C1518   1.356       .  A
C1511      N1527   1.351       .  A
C1511      C1523   1.464       .  S
C1511      C1640   1.466       .  S
N1514      C1525   1.350       .  A
C1515      C1637   1.452       .  S
C1519      H1716   1.082       .  S
N1521      N1723   1.306       .  A
C1525      C1659   1.459       .  S
C1528      N1546   1.354       .  A
C1528      C1565   1.468       .  S
C1528      C1635   1.479       .  S
N1529      N1546   1.334       .  A
N1529      N1551   1.335       .  A
C1530      N1555   1.331       .  A
C1530      H1575   1.082       .  S
C1530      C1568   1.447       .  S
H1531      C1572   1.079       .  S
C1532      N1556   1.343       .  A
C1532      H1561   1.068       .  S
C1532      C1536   1.410       .  S
Co1533     N1541   2.060       .  S
Co1533     N1573   2.100       .  S
Co1533     N1549   2.081       .  S
N1534      C1572   1.368       .  A
N1534      N1541   1.326       .  A
N1534     Co1535   2.203       .  S
Co1535     N1555   2.112       .  S
C1536      C1643   1.446       .  S
N1537      N1544   1.308       .  A
N1537      N1567   1.332       .  A
N1537     Co1570   2.139       .  S
N1539      C1568   1.369       .  A
N1539      N1549   1.334       .  A
H1540      C1565   1.081   1_545  S
N1541      N1562   1.326       .  A
N1542      N1560   1.345       .  A
N1542      N1547   1.320       .  A
C1543      N1547   1.346       .  A
C1543      C1571   1.455       .  S
C1543      C1652   1.425       .  S
N1544      C1559   1.343       .  A
N1544     Co1566   2.056       .  S
C1545      N1573   1.366       .  A
C1545      H1579   1.079       .  S
C1548      C1650   1.432       .  S
N1549      N1555   1.318       .  A
N1550      C1576   1.358       .  A
N1550      N1552   1.323       .  A
N1550     Co1566   2.145       .  S
N1551      C1565   1.353       .  A
N1552      N1580   1.326       .  A
N1552     Co1570   2.110       .  S
H1553      C1576   1.080       .  S
H1554      C1571   1.082       .  S
N1556     Co1570   2.038       .  S
N1557      N1569   1.322       .  A
N1557     Co1566   2.126   1_545  S
C1558      N1562   1.341       .  A
C1558      C1572   1.496       .  S
C1558      C1656   1.487       .  S
C1559      H1563   1.082       .  S
C1559      C1578   1.461       .  S
N1560      C1571   1.339       .  A
C1564      N1580   1.347       .  A
C1564      C1576   1.478       .  S
C1564      C1634   1.465       .  S
N1567      C1578   1.358       .  A
C1568      C1632   1.453       .  S
C1578      C1654   1.459       .  S
C1581      C1583   1.559       .  S
C1581      C1585   1.566       .  S
C1581      C1584   1.572       .  S
C1581      C1627   1.593       .  S
C1582      C1586   1.562       .  S
C1582      C1588   1.552       .  S
C1582      C1587   1.534       .  S
C1582      C1630   1.580       .  S
C1583      C1591   1.386       .  A
C1583      C1586   1.419       .  A
C1584      C1595   1.398       .  A
C1584      C1587   1.419       .  A
C1585      C1599   1.392       .  A
C1585      C1588   1.420       .  A
C1586      C1589   1.393       .  A
C1587      C1593   1.368       .  A
C1588      C1596   1.383       .  A
C1589      N1590   1.367       .  A
C1589      H1602   1.083       .  S
N1590      C1591   1.361       .  A
N1590      C1642   1.426       .  S
C1591      H1592   1.082       .  S
C1593      N1594   1.348       .  A
C1593      H1603   1.083       .  S
N1594      C1595   1.369       .  A
N1594      C1638   1.413       .  S
C1595      H1601   1.082       .  S
C1596      N1597   1.359       .  A
C1596      H1598   1.083       .  S
N1597      C1599   1.366       .  A
N1597      C1639   1.422       .  S
C1599      H1600   1.083       .  S
C1604      C1606   1.554       .  S
C1604      C1608   1.560       .  S
C1604      C1607   1.541       .  S
C1604      C1867   1.582       .  S
C1605      C1609   1.574       .  S
C1605      C1611   1.557       .  S
C1605      C1610   1.565       .  S
C1605      C1628   1.593       .  S
C1606      C1614   1.385       .  A
C1606      C1609   1.420       .  A
C1607      C1618   1.377       .  A
C1607      C1610   1.418       .  A
C1608      C1622   1.389       .  A
C1608      C1611   1.421       .  A
C1609      C1612   1.399       .  A
C1610      C1616   1.392       .  A
C1611      C1619   1.385       .  A
C1612      N1613   1.370       .  A
C1612      H1625   1.082       .  S
N1613      C1614   1.360       .  A
N1613      C1636   1.430       .  S
C1614      H1615   1.083       .  S
C1616      N1617   1.366       .  A
C1616      H1626   1.083       .  S
N1617      C1618   1.354       .  A
N1617      C1631   1.416       .  S
C1618      H1624   1.080       .  S
C1619      N1620   1.361       .  A
C1619      H1621   1.083       .  S
N1620      C1622   1.364       .  A
N1620      C1633   1.422       .  S
C1622      H1623   1.082       .  S
C1627      C1628   1.277       .  T
C1629      C1842   1.580       .  S
C1629      C1630   1.269       .  T
C1631      C1632   1.218       .  T
C1633      C1634   1.223       .  T
C1635      C1636   1.231       .  T
C1637      C1638   1.216       .  T
C1639      C1640   1.224       .  T
C1641      C1642   1.227       .  T
C1643      C1644   1.205   1_565  T
C1645      C1646   1.203   1_655  T
C1647      C1648   1.209       .  T
C1649      C1650   1.207       .  T
C1651      C1652   1.199       .  T
C1653      C1654   1.220       .  T
C1655      C1656   1.238       .  T
C1657      C1658   1.250       .  T
C1659      C1660   1.220       .  T
C1660      N1683   1.418       .  S
C1661      N1680   1.403       .  S
C1661      C1662   1.207       .  T
C1663      C1664   1.281       .  T
C1665      C1666   1.279       .  T
C1667      C1669   1.583       .  S
C1667      C1671   1.560       .  S
C1667      C1670   1.529       .  S
C1667      C1904   1.594       .  S
C1668      C1672   1.598       .  S
C1668      C1674   1.554       .  S
C1668      C1673   1.559       .  S
C1668      C1902   1.603       .  S
C1669      C1677   1.402       .  A
C1670      C1681   1.370       .  A
C1671      C1685   1.390       .  A
C1672      C1675   1.412       .  A
C1673      C1679   1.391       .  A
C1674      C1682   1.386       .  A
C1675      N1676   1.378       .  A
C1675      H1688   1.082       .  S
N1676      C1896   1.464       .  S
C1677      H1678   1.082       .  S
C1679      H1689   1.082       .  S
N1680      C1681   1.348       .  A
C1681      H1687   1.083       .  S
C1682      H1684   1.083       .  S
N1683      C1685   1.365       .  A
C1685      H1686   1.082       .  S
C1690      C1692   1.555       .  S
C1690      C1694   1.563       .  S
C1690      C1693   1.585       .  S
C1690      C1901   1.603       .  S
C1691      C1695   1.528       .  S
C1691      C1697   1.553       .  S
C1691      C1696   1.584       .  S
C1691      C1903   1.595       .  S
C1692      C1700   1.389       .  A
C1692      C1695   1.411       .  A
C1693      C1704   1.402       .  A
C1693      C1696   1.432       .  A
C1694      C1708   1.389       .  A
C1694      C1697   1.422       .  A
C1695      C1698   1.370       .  A
C1696      C1702   1.402       .  A
C1697      C1705   1.383       .  A
C1698      N1699   1.349       .  A
C1698      H1711   1.083       .  S
N1699      C1700   1.363       .  A
N1699      C1889   1.405       .  S
C1700      H1701   1.082       .  S
C1702      N1703   1.372       .  A
C1702      H1712   1.083       .  S
N1703      C1704   1.371       .  A
N1703      C1893   1.448       .  S
C1704      H1710   1.082       .  S
C1705      N1706   1.360       .  A
C1705      H1707   1.083       .  S
N1706      C1708   1.363       .  A
N1706      C1891   1.419       .  S
C1708      H1709   1.082       .  S
C1713      N1731   1.353       .  A
C1713      C1750   1.464       .  S
C1713      C1879   1.474       .  S
N1714      N1731   1.334       .  A
N1714      N1736   1.330       .  A
C1715      N1740   1.350       .  A
C1715      H1760   1.082       .  S
C1715      C1753   1.467       .  S
C1717      H1746   1.082       .  S
C1717      C1721   1.415       .  S
Co1718     N1726   2.056       .  S
Co1718     N1758   2.066       .  S
Co1718     N1734   2.164       .  S
N1719      C1757   1.352   1_556  A
N1719      N1726   1.325       .  A
N1719     Co1720   2.143       .  S
Co1720     N1723   2.091   1_556  S
Co1720     N1740   2.084       .  S
C1721      C1885   1.451       .  S
N1722      N1729   1.312       .  A
N1722      N1752   1.332       .  A
N1722     Co1755   2.114       .  S
N1724      C1753   1.354       .  A
N1724      N1734   1.335       .  A
H1725      C1750   1.081       .  S
N1726      N1747   1.317       .  A
N1727      N1745   1.319       .  A
N1727      N1732   1.348       .  A
C1728      N1732   1.370       .  A
C1728      C1756   1.468       .  S
C1728      C1895   1.524       .  S
N1729      C1744   1.349       .  A
N1729     Co1751   2.094       .  S
C1730      N1758   1.337       .  A
C1730      H1764   1.073       .  S
C1733      C1884   1.440       .  S
N1734      N1740   1.318       .  A
N1735      C1761   1.357       .  A
N1735      N1737   1.317       .  A
N1735     Co1751   2.169       .  S
N1736      C1750   1.351       .  A
N1737      N1765   1.328       .  A
N1737     Co1755   2.067       .  S
H1738      C1761   1.079       .  S
H1739      C1756   1.078       .  S
N1741     Co1755   2.029   1_554  S
N1742      N1754   1.339       .  A
N1742     Co1751   2.210   1_545  S
C1743      N1747   1.338       .  A
C1743      C1757   1.479   1_556  S
C1743      C1900   1.445       .  S
C1744      H1748   1.082       .  S
C1744      C1763   1.465       .  S
N1745      C1756   1.364       .  A
C1749      N1765   1.347       .  A
C1749      C1761   1.463       .  S
C1749      C1878   1.459       .  S
N1752      C1763   1.353       .  A
C1753      C1875   1.472       .  S
C1763      C1897   1.465       .  S
C1766      N1784   1.354       .  A
C1766      C1803   1.470       .  S
C1766      C1873   1.480       .  S
N1767      N1784   1.334       .  A
N1767      N1789   1.335       .  A
C1768      N1793   1.338       .  A
C1768      H1813   1.082       .  S
C1768      C1806   1.448       .  S
H1769      C1810   1.082       .  S
C1770      N1794   1.342       .  A
C1770      H1799   1.065       .  S
C1770      C1774   1.412       .  S
Co1771     N1779   2.070       .  S
Co1771     N1811   2.130       .  S
Co1771     N1787   2.129       .  S
N1772      C1810   1.373       .  A
N1772      N1779   1.329       .  A
N1772     Co1773   2.219       .  S
Co1773     N1793   2.051       .  S
C1774      C1881   1.446       .  S
N1775      N1782   1.308       .  A
N1775      N1805   1.333       .  A
N1775     Co1808   2.141       .  S
N1777      C1806   1.368       .  A
N1777      N1787   1.339       .  A
H1778      C1803   1.082       .  S
N1779      N1800   1.327       .  A
N1780      N1798   1.343       .  A
N1780      N1785   1.324       .  A
C1781      N1785   1.348       .  A
C1781      C1809   1.461       .  S
C1781      C1890   1.442       .  S
N1782      C1797   1.343       .  A
N1782     Co1804   2.056       .  S
C1783      N1811   1.355       .  A
C1783      H1817   1.037       .  S
C1786      C1888   1.440       .  S
N1787      N1793   1.311       .  A
N1788      C1814   1.357       .  A
N1788      N1790   1.325       .  A
N1788     Co1804   2.146       .  S
N1789      C1803   1.355       .  A
N1790      N1818   1.325       .  A
N1790     Co1808   2.117       .  S
H1791      C1814   1.082       .  S
H1792      C1809   1.082       .  S
N1794     Co1808   2.047       .  S
N1795      N1807   1.319       .  A
N1795     Co1804   2.121   1_545  S
C1796      N1800   1.339       .  A
C1796      C1810   1.504       .  S
C1796      C1894   1.499       .  S
C1797      H1801   1.082       .  S
C1797      C1816   1.461       .  S
N1798      C1809   1.343       .  A
C1802      N1818   1.347       .  A
C1802      C1814   1.483       .  S
C1802      C1872   1.466       .  S
N1805      C1816   1.359       .  A
C1806      C1870   1.473       .  S
C1816      C1892   1.461       .  S
C1819      C1821   1.562       .  S
C1819      C1823   1.561       .  S
C1819      C1822   1.576       .  S
C1819      C1865   1.594       .  S
C1820      C1824   1.561       .  S
C1820      C1826   1.550       .  S
C1820      C1825   1.549       .  S
C1820      C1868   1.582       .  S
C1821      C1829   1.389       .  A
C1821      C1824   1.419       .  A
C1822      C1833   1.400       .  A
C1822      C1825   1.421       .  A
C1823      C1837   1.390       .  A
C1823      C1826   1.419       .  A
C1824      C1827   1.392       .  A
C1825      C1831   1.381       .  A
C1826      C1834   1.381       .  A
C1827      N1828   1.365       .  A
C1827      H1840   1.083       .  S
N1828      C1829   1.363       .  A
N1828      C1880   1.428       .  S
C1829      H1830   1.082       .  S
C1831      N1832   1.357       .  A
C1831      H1841   1.080       .  S
N1832      C1833   1.370       .  A
N1832      C1876   1.427       .  S
C1833      H1839   1.082       .  S
C1834      N1835   1.358       .  A
C1834      H1836   1.083       .  S
N1835      C1837   1.364       .  A
N1835      C1877   1.418       .  S
C1837      H1838   1.082       .  S
C1842      C1844   1.550       .  S
C1842      C1846   1.555       .  S
C1842      C1845   1.556       .  S
C1843      C1847   1.572       .  S
C1843      C1849   1.559       .  S
C1843      C1848   1.576       .  S
C1843      C1866   1.594       .  S
C1844      C1852   1.384       .  A
C1844      C1847   1.416       .  A
C1845      C1856   1.388       .  A
C1845      C1848   1.421       .  A
C1846      C1860   1.387       .  A
C1846      C1849   1.418       .  A
C1847      C1850   1.400       .  A
C1848      C1854   1.398       .  A
C1849      C1857   1.387       .  A
C1850      N1851   1.370       .  A
C1850      H1863   1.082       .  S
N1851      C1852   1.359       .  A
N1851      C1874   1.431       .  S
C1852      H1853   1.083       .  S
C1854      N1855   1.369       .  A
C1854      H1864   1.082       .  S
N1855      C1856   1.361       .  A
N1855      C1869   1.430       .  S
C1856      H1862   1.082       .  S
C1857      N1858   1.363       .  A
C1857      H1859   1.083       .  S
N1858      C1860   1.362       .  A
N1858      C1871   1.423       .  S
C1860      H1861   1.083       .  S
C1865      C1866   1.277       .  T
C1867      C1868   1.270   1_554  T
C1869      C1870   1.230       .  T
C1871      C1872   1.224       .  T
C1873      C1874   1.231       .  T
C1875      C1876   1.227       .  T
C1877      C1878   1.220       .  T
C1879      C1880   1.228       .  T
C1881      C1882   1.205   1_565  T
C1883      C1884   1.203   1_655  T
C1885      C1886   1.210       .  T
C1887      C1888   1.212       .  T
C1889      C1890   1.209       .  T
C1891      C1892   1.221       .  T
C1893      C1894   1.245       .  T
C1895      C1896   1.259       .  T
C1897      C1898   1.223       .  T
C1899      C1900   1.213       .  T
C1901      C1902   1.283       .  T
C1903      C1904   1.278       .  T
