geometry optimzed in LAMMPS
_audit_creation_date              2020-11-30 
_audit_creation_method            'lammps2cif' 
_symmetry_space_group_name_H-M    'P1' 
_symmetry_Int_Tables_number       1 
_symmetry_cell_setting            triclinic 
loop_ 
_symmetry_equiv_pos_as_xyz 
  x,y,z 
_cell_length_a                    49.60876412 
_cell_length_b                    49.538235793332824 
_cell_length_c                    49.550052702359224 
_cell_angle_alpha                 89.99543303654752 
_cell_angle_beta                  89.98986813959426 
_cell_angle_gamma                 90.01868186548059 
loop_ 
_atom_site_label 
_atom_site_type_symbol 
_atom_site_fract_x 
_atom_site_fract_y 
_atom_site_fract_z 
_atom_site_charge 
C1          C  0.13304253  0.75041341  0.97706969     0.79800
N2          N  0.14667898  0.75085693  0.00074914    -0.78500
C3          C  0.13328263  0.75170372  0.02455365     0.82200
N4          N  0.10584474  0.75224774  0.02462841    -0.78500
C5          C  0.09205344  0.75239590  0.00084304     0.82300
N6          N  0.10576233  0.75139147  0.97715258    -0.80200
C7          C  0.31101842  0.54429262  0.02544428     0.79800
N8          N  0.30969092  0.51694035  0.02485828    -0.78500
C9          C  0.31063743  0.50358569  0.00094069     0.82200
N10         N  0.31322471  0.51766824  0.97757439    -0.78500
C11         C  0.31468452  0.54501498  0.97801619     0.82300
N12         N  0.31389460  0.55817360  0.00200899    -0.80200
C13         C  0.02365957  0.24323493  0.02345371     0.79800
N14         N  0.05079047  0.24701877  0.02363259    -0.78500
C15         C  0.06428889  0.25070315  0.00007853     0.82200
N16         N  0.05055131  0.25086954  0.97637100    -0.78500
C17         C  0.02349399  0.24708961  0.97595032     0.82300
N18         N  0.01021965  0.24363760  0.99962554    -0.80200
C19         C  0.84932170  0.43283615  0.97862553     0.79800
N20         N  0.84792028  0.46023495  0.97772727    -0.78500
C21         C  0.85037381  0.47498239  0.00078625     0.82200
N22         N  0.85435181  0.46220448  0.02472968    -0.78500
C23         C  0.85641750  0.43488496  0.02562553     0.82300
N24         N  0.85364648  0.42041284  0.00258911    -0.80200
C25         C  0.84330003  0.01386888  0.05447617     0.79800
N26         N  0.84335021  0.99069728  0.06906540    -0.78500
C27         C  0.84571035  0.96636173  0.05679677     0.82200
N28         N  0.84724391  0.96523917  0.02944442    -0.78500
C29         C  0.84691655  0.98830343  0.01458061     0.82300
N30         N  0.84491516  0.01259490  0.02716096    -0.80200
C31         C  0.63475496  0.01142392  0.23506325     0.79800
N32         N  0.64723987  0.98727704  0.23846032    -0.78500
C33         C  0.63293638  0.96401421  0.23994646     0.82200
N34         N  0.60574668  0.96480959  0.23749929    -0.78500
C35         C  0.59282134  0.98876168  0.23426517     0.82300
N36         N  0.60734516  0.01212003  0.23333329    -0.80200
C37         C  0.33802831  0.96660580  0.94688417     0.79800
N38         N  0.33489118  0.96641493  0.97412408    -0.78500
C39         C  0.33319159  0.99000181  0.98803888     0.82200
N40         N  0.33404588  0.01384499  0.97458003    -0.78500
C41         C  0.33718975  0.01414632  0.94741108     0.82300
N42         N  0.33903159  0.99055845  0.93364903    -0.80200
C43         C  0.52305478  0.96460719  0.74148545     0.79800
N44         N  0.55028283  0.96478910  0.74342721    -0.78500
C45         C  0.56394294  0.98839548  0.74564384     0.82200
N46         N  0.55023091  0.01216814  0.74565182    -0.78500
C47         C  0.52291400  0.01224070  0.74330885     0.82300
N48         N  0.50949903  0.98840518  0.74142666    -0.80200
C49         C  0.02110745  0.74669479  0.02308577     0.79800
N50         N  0.04834817  0.74920756  0.02377999    -0.78500
C51         C  0.06247907  0.75154018  0.00042223     0.82200
N52         N  0.04919425  0.75162583  0.97639853    -0.78500
C53         C  0.02194331  0.74915563  0.97557245     0.82300
N54         N  0.00809811  0.74682028  0.99905246    -0.80200
C55         C  0.84808170  0.54666869  0.02224242     0.79800
N56         N  0.84892270  0.51924090  0.02312180    -0.78500
C57         C  0.84874309  0.50459388  0.99987464     0.82200
N58         N  0.84743562  0.51748200  0.97571523    -0.78500
C59         C  0.84616472  0.54483330  0.97466879     0.82300
N60         N  0.84659405  0.55925372  0.99796856    -0.80200
C61         C  0.13363176  0.26022606  0.97509805     0.79800
N62         N  0.10659506  0.25655073  0.97593470    -0.78500
C63         C  0.09356594  0.25457828  0.99990397     0.82200
N64         N  0.10783531  0.25562920  0.02330736    -0.78500
C65         C  0.13498685  0.25941364  0.02265444     0.82300
N66         N  0.14779955  0.26156765  0.99850597    -0.80200
C67         C  0.31609547  0.43338209  0.97663678     0.79800
N68         N  0.31471287  0.41953358  0.00019062    -0.78500
C69         C  0.31091372  0.43262931  0.02391150     0.82200
N70         N  0.30922891  0.45998544  0.02397684    -0.78500
C71         C  0.31059687  0.47403993  0.00048543     0.82300
N72         N  0.31384330  0.46066564  0.97678514    -0.80200
C73         C  0.84769964  0.00888877  0.94277760     0.79800
N74         N  0.84733156  0.01005136  0.97017184    -0.78500
C75         C  0.84809949  0.98696647  0.98503363     0.82200
N76         N  0.84920728  0.96262054  0.97240262    -0.78500
C77         C  0.85025747  0.96138573  0.94506146     0.82300
N78         N  0.84948201  0.98451415  0.93052007    -0.80200
C79         C  0.63497507  0.01030201  0.75206007     0.79800
N80         N  0.64734430  0.98625632  0.75619069    -0.78500
C81         C  0.63297073  0.96301645  0.75728775     0.82200
N82         N  0.60591837  0.96382656  0.75337173    -0.78500
C83         C  0.59327412  0.98780233  0.74906768     0.82300
N84         N  0.60784025  0.01102675  0.74843801    -0.80200
C85         C  0.32717644  0.01314782  0.05871427     0.79800
N86         N  0.32987897  0.01334315  0.03145432    -0.78500
C87         C  0.33029540  0.98976251  0.01745096     0.82200
N88         N  0.32827904  0.96593116  0.03082527    -0.78500
C89         C  0.32595104  0.96545940  0.05808677     0.82300
N90         N  0.32541715  0.98917065  0.07178506    -0.80200
C91         C  0.52199575  0.96529416  0.23349952     0.79800
N92         N  0.54935265  0.96540181  0.23364078    -0.78500
C93         C  0.56319220  0.98910069  0.23315160     0.82200
N94         N  0.54948343  0.01285221  0.23309041    -0.78500
C95         C  0.52207018  0.01300827  0.23370013     0.82300
N96         N  0.50850428  0.98913870  0.23370144    -0.80200
C97         C  0.05486173  0.04590164  0.72724393     0.79800
N98         N  0.07862969  0.05929437  0.72523410    -0.78500
C99         C  0.10232064  0.04563879  0.72449529     0.82200
N100        N  0.10207642  0.01827576  0.72623943    -0.78500
C101        C  0.07834967  0.00468960  0.72813187     0.82300
N102        N  0.05478161  0.01856103  0.72861067    -0.80200
C103        C  0.05326026  0.23348714  0.55616694     0.79800
N104        N  0.05379718  0.23132189  0.52888894    -0.78500
C105        C  0.07766270  0.23116226  0.51546682     0.82200
N106        N  0.10113235  0.23333952  0.52945034    -0.78500
C107        C  0.10083228  0.23587661  0.55676783     0.82300
N108        N  0.07680924  0.23578400  0.56995829    -0.80200
C109        C  0.10216797  0.93429889  0.73343254     0.79800
N110        N  0.10190499  0.96145842  0.73005261    -0.78500
C111        C  0.07826394  0.97525270  0.73080345     0.82200
N112        N  0.05473674  0.96178460  0.73504735    -0.78500
C113        C  0.05484336  0.93458821  0.73856712     0.82300
N114        N  0.07856508  0.92103977  0.73731481    -0.80200
C115        C  0.05312905  0.76394316  0.55605746     0.79800
N116        N  0.05367867  0.76145720  0.52881620    -0.78500
C117        C  0.07742113  0.75817125  0.51563055     0.82200
N118        N  0.10081700  0.75693958  0.52987489    -0.78500
C119        C  0.10052299  0.75925476  0.55722147     0.82300
N120        N  0.07655771  0.76245910  0.57014238    -0.80200
C121        C  0.10403185  0.93194641  0.22302285     0.79800
N122        N  0.08035146  0.91822117  0.22261242    -0.78500
C123        C  0.05640910  0.93152857  0.22350992     0.82200
N124        N  0.05651122  0.95893738  0.22509162    -0.78500
C125        C  0.08012856  0.97288765  0.22524594     0.82300
N126        N  0.10384856  0.95928182  0.22456680    -0.80200
C127        C  0.10095972  0.75007825  0.44518683     0.79800
N128        N  0.07706550  0.74752530  0.43212139    -0.78500
C129        C  0.05339474  0.74809523  0.44576176     0.82200
N130        N  0.05365195  0.75200043  0.47286453    -0.78500
C131        C  0.07742856  0.75471375  0.48624262     0.82300
N132        N  0.10104534  0.75381286  0.47235116    -0.80200
C133        C  0.05598889  0.04346305  0.22920613     0.79800
N134        N  0.05627382  0.01612265  0.22730892    -0.78500
C135        C  0.08006063  0.00251118  0.22670824     0.82200
N136        N  0.10373795  0.01640905  0.22773660    -0.78500
C137        C  0.10362890  0.04380759  0.22927186     0.82300
N138        N  0.07972046  0.05707397  0.23013509    -0.80200
C139        C  0.10163121  0.22786868  0.44480429     0.79800
N140        N  0.10156228  0.23005064  0.47212736    -0.78500
C141        C  0.07792223  0.22889586  0.48596036     0.82200
N142        N  0.05434323  0.22593511  0.47233738    -0.78500
C143        C  0.05421815  0.22428317  0.44500795     0.82300
N144        N  0.07794567  0.22512951  0.43140758    -0.80200
C145        C  0.32672971  0.46522364  0.44707109     0.79800
N146        N  0.32541077  0.48893876  0.43344262    -0.78500
C147        C  0.32778371  0.51272001  0.44681294     0.82200
N148        N  0.33147182  0.51280473  0.47394240    -0.78500
C149        C  0.33248596  0.48912873  0.48771403     0.82300
N150        N  0.33036693  0.46538418  0.47418775    -0.80200
C151        C  0.13184734  0.46521457  0.25348482     0.79800
N152        N  0.14567413  0.48879065  0.25236938    -0.78500
C153        C  0.13290821  0.51271438  0.25598321     0.82200
N154        N  0.10588793  0.51297068  0.26051296    -0.78500
C155        C  0.09191918  0.48940284  0.26212862     0.82300
N156        N  0.10501936  0.46555353  0.25882548    -0.80200
O157        O  0.28598950  0.73650928  0.17328663    -0.86900
O158        O  0.28401389  0.73823033  0.32691867    -0.87100
O159        O  0.25188613  0.69472923  0.25107909    -0.88800
O160        O  0.25291369  0.78263541  0.24809633    -0.87500
O161        O  0.28593057  0.81515049  0.24809223    -0.87100
O162        O  0.28450117  0.66187197  0.25324861    -0.88500
O163        O  0.25173567  0.73911607  0.29372257    -0.87000
O164        O  0.25296221  0.73637739  0.20571361    -0.86600
Zr165      Zr  0.27443053  0.73838824  0.25009914     2.84300
O166        O  0.30137374  0.76565304  0.27773685    -1.08500
O167        O  0.30157485  0.71053384  0.22347908    -1.09300
C168        C  0.26111930  0.73586829  0.18091408     1.06200
C169        C  0.25926224  0.73853688  0.31868246     1.06100
C170        C  0.25977394  0.66995160  0.25287229     1.09100
C171        C  0.26107526  0.80740738  0.24702851     1.06900
H172        H  0.28967681  0.69999050  0.28949962     0.32400
O173        O  0.30095808  0.71101653  0.27807471    -1.29500
H174        H  0.29126575  0.77642388  0.21136854     0.32100
O175        O  0.30218730  0.76525654  0.22300572    -1.31200
O176        O  0.37226739  0.73758010  0.32708831    -0.86900
O177        O  0.37297909  0.73510814  0.17422172    -0.88400
O178        O  0.32982170  0.66182792  0.29528823    -0.87000
O179        O  0.32793248  0.81477001  0.29465697    -0.87100
O180        O  0.33149245  0.81414786  0.20699640    -0.86800
O181        O  0.32615444  0.66048879  0.20834107    -0.86600
O182        O  0.40461170  0.69336973  0.25112604    -0.86900
O183        O  0.40611467  0.78075536  0.24976073    -0.86400
O184        O  0.37191340  0.66060250  0.25031049    -0.87500
O185        O  0.37379235  0.81391274  0.25108554    -0.86600
O186        O  0.32946128  0.69469199  0.32784896    -0.87000
O187        O  0.32768084  0.69277514  0.17510086    -0.86800
O188        O  0.33045732  0.78141774  0.17413162    -0.86400
O189        O  0.32783262  0.78183419  0.32724204    -0.86800
O190        O  0.40515942  0.73753055  0.29440278    -0.87100
O191        O  0.40531658  0.73456197  0.20701273    -0.88400
Zr192      Zr  0.32829008  0.73816519  0.30511682     2.83100
Zr193      Zr  0.32925932  0.73735043  0.19627385     2.83500
Zr194      Zr  0.32841432  0.68353463  0.25138627     2.84100
Zr195      Zr  0.32942157  0.79232805  0.25071740     2.83400
Zr196      Zr  0.38301771  0.73739715  0.25078087     2.84200
O197        O  0.35652776  0.76494923  0.22326456    -1.09000
O198        O  0.35579586  0.71056991  0.27849700    -1.08500
C199        C  0.39708649  0.73740365  0.31914428     1.06100
C200        C  0.39770411  0.73365502  0.18206421     1.08800
C201        C  0.32984183  0.66983774  0.32007199     1.06300
C202        C  0.32757867  0.80670052  0.31947901     1.06700
C203        C  0.33142375  0.80622891  0.18220336     1.06300
C204        C  0.32612560  0.66807961  0.18346517     1.05800
C205        C  0.39672143  0.66853822  0.25032335     1.06200
C206        C  0.39852237  0.80568238  0.25007712     1.05800
H207        H  0.36688418  0.69828304  0.21262384     0.32400
O208        O  0.35592568  0.70994172  0.22372466    -1.30100
H209        H  0.36748738  0.77628362  0.28944650     0.32500
O210        O  0.35622133  0.76507188  0.27817981    -1.31500
C211        C  0.52383836  0.23585798  0.47764141     0.79800
N212        N  0.55119786  0.23427859  0.47778948    -0.78500
C213        C  0.56480938  0.23206205  0.50150479     0.82200
N214        N  0.55088499  0.23141500  0.52518482    -0.78500
C215        C  0.52351651  0.23286592  0.52526651     0.82300
N216        N  0.51021099  0.23541677  0.50143129    -0.80200
C217        C  0.34066100  0.04479336  0.47567316     0.79800
N218        N  0.33994046  0.05879464  0.49919507    -0.78500
C219        C  0.33826063  0.04584158  0.52322976     0.82200
N220        N  0.33698844  0.01844868  0.52370217    -0.78500
C221        C  0.33773325  0.00412713  0.50029366     0.82300
N222        N  0.33968043  0.01737284  0.47632713    -0.80200
O223        O  0.32678440  0.16237660  0.79491529    -0.86900
O224        O  0.32435373  0.31549937  0.79492028    -0.87100
O225        O  0.36981062  0.24065243  0.82926848    -0.88800
O226        O  0.28158038  0.23961140  0.82642078    -0.87500
O227        O  0.24980297  0.24028756  0.79267630    -0.87100
O228        O  0.40301305  0.23979403  0.79707263    -0.88500
O229        O  0.32285958  0.28271789  0.82773638    -0.87000
O230        O  0.32493323  0.19471062  0.82797180    -0.86600
Zr231      Zr  0.32620365  0.23875201  0.80587570     2.84300
O232        O  0.29948546  0.26565689  0.77770200    -1.08500
O233        O  0.35467808  0.21156179  0.77966864    -1.09300
C234        C  0.32510075  0.16991669  0.81979427     1.06200
C235        C  0.32272272  0.30751757  0.81966013     1.06100
C236        C  0.39482972  0.24068959  0.82179172     1.09100
C237        C  0.25703989  0.24031151  0.81770725     1.06900
H238        H  0.36448987  0.27787688  0.79104931     0.32400
O239        O  0.35382121  0.26642469  0.77944858    -1.29500
H240        H  0.28819937  0.19994297  0.78871252     0.32100
O241        O  0.29975371  0.21128871  0.77787018    -1.31200
O242        O  0.32897907  0.31545842  0.70750320    -0.86900
O243        O  0.33016090  0.16246473  0.70729291    -0.88400
O244        O  0.40346110  0.28348310  0.75374505    -0.87000
O245        O  0.25027124  0.28189874  0.74730095    -0.87100
O246        O  0.25202542  0.19377538  0.74926801    -0.86800
O247        O  0.40483718  0.19566227  0.75167820    -0.86600
O248        O  0.37425155  0.24091186  0.67642158    -0.86900
O249        O  0.28628144  0.23570821  0.67286534    -0.86400
O250        O  0.40600919  0.24081475  0.71008254    -0.87500
O251        O  0.25288274  0.23501786  0.70493569    -0.86600
O252        O  0.37062119  0.31616205  0.75360789    -0.87000
O253        O  0.37216174  0.16293509  0.75161840    -0.86800
O254        O  0.28514490  0.16142446  0.74841958    -0.86400
O255        O  0.28286956  0.31479675  0.74930788    -0.86800
O256        O  0.32826700  0.28281744  0.67451256    -0.87100
O257        O  0.33228740  0.19540722  0.67475700    -0.88400
Zr258      Zr  0.32708925  0.29326362  0.75126779     2.83100
Zr259      Zr  0.32823161  0.18465979  0.75120430     2.83500
Zr260      Zr  0.38195996  0.23936642  0.75287065     2.84100
Zr261      Zr  0.27326386  0.23829498  0.74957478     2.83400
Zr262      Zr  0.32933134  0.23911343  0.69674474     2.84200
O263        O  0.30157452  0.21149130  0.72309449    -1.09000
O264        O  0.35558701  0.26662880  0.72471561    -1.08500
C265        C  0.32856409  0.30753794  0.68268979     1.06100
C266        C  0.33231027  0.17056332  0.68259152     1.08800
C267        C  0.39545006  0.30827431  0.75410416     1.06300
C268        C  0.25812350  0.30679595  0.74748945     1.06700
C269        C  0.26026479  0.16901932  0.74844259     1.06300
C270        C  0.39695555  0.17079208  0.75071439     1.05800
C271        C  0.39888376  0.24096318  0.68502943     1.06200
C272        C  0.26133250  0.23401483  0.68028470     1.05800
H273        H  0.36774244  0.20108993  0.71370341     0.32400
O274        O  0.35597446  0.21206046  0.72467123    -1.30100
H275        H  0.28972140  0.27688215  0.71139036     0.32500
O276        O  0.30081533  0.26595134  0.72304967    -1.31500
C277        C  0.52088811  0.74931830  0.47760716     0.79800
N278        N  0.54821333  0.74822164  0.47755981    -0.78500
C279        C  0.56208255  0.74916264  0.50114748     0.82200
N280        N  0.54847252  0.75130587  0.52489682    -0.78500
C281        C  0.52111555  0.75287030  0.52507570     0.82300
N282        N  0.50748620  0.75170267  0.50135139    -0.80200
C283        C  0.33541102  0.93390570  0.52588545     0.79800
N284        N  0.33739956  0.96123423  0.52495131    -0.78500
C285        C  0.33592134  0.97449195  0.50095467     0.82200
N286        N  0.33255426  0.96023580  0.47770196    -0.78500
C287        C  0.33032609  0.93287724  0.47844956     0.82300
N288        N  0.33211250  0.91998788  0.50252604    -0.80200
C289        C  0.33145109  0.46527227  0.55816391     0.79800
N290        N  0.33389445  0.48883439  0.57180996    -0.78500
C291        C  0.33649225  0.51257087  0.55844138     0.82200
N292        N  0.33635942  0.51269443  0.53103100    -0.78500
C293        C  0.33429881  0.48908409  0.51718918     0.82300
N294        N  0.33191958  0.46542695  0.53082263    -0.80200
C295        C  0.13292070  0.46583824  0.72758220     0.79800
N296        N  0.14594262  0.48994421  0.72824921    -0.78500
C297        C  0.13228733  0.51360197  0.72621568     0.82200
N298        N  0.10507169  0.51302688  0.72312067    -0.78500
C299        C  0.09169636  0.48906152  0.72220489     0.82300
N300        N  0.10572041  0.46555799  0.72440209    -0.80200
O301        O  0.28385425  0.74035411  0.82874907    -0.86900
O302        O  0.28387962  0.74199004  0.67545910    -0.87100
O303        O  0.25173081  0.78355392  0.75242752    -0.88800
O304        O  0.25118928  0.69560245  0.75037768    -0.87500
O305        O  0.28410011  0.66305868  0.75011573    -0.87100
O306        O  0.28410712  0.81661698  0.75296766    -0.88500
O307        O  0.25144161  0.74174778  0.70846287    -0.87000
O308        O  0.25115097  0.73915084  0.79592419    -0.86600
Zr309      Zr  0.27359569  0.73948258  0.75227407     2.84300
O310        O  0.30063725  0.71219090  0.72480561    -1.08500
O311        O  0.30028619  0.76680750  0.78015422    -1.09300
C312        C  0.25910212  0.73972916  0.82072032     1.06200
C313        C  0.25908497  0.74309558  0.68357779     1.06100
C314        C  0.25936201  0.80849702  0.75257496     1.09100
C315        C  0.25918454  0.67076146  0.74984811     1.06900
H316        H  0.28965516  0.77878323  0.71439410     0.32400
O317        O  0.30072223  0.76728974  0.72554878    -1.29500
H318        H  0.28923118  0.70078398  0.79056044     0.32100
O319        O  0.30064991  0.71208937  0.77955337    -1.31200
O320        O  0.37166339  0.74137399  0.67620679    -0.86900
O321        O  0.37127519  0.73895576  0.82991810    -0.88400
O322        O  0.32916208  0.81726886  0.70993651    -0.87000
O323        O  0.33032375  0.66348342  0.70814094    -0.87100
O324        O  0.32633767  0.66247086  0.79575958    -0.86800
O325        O  0.32767937  0.81586769  0.79753841    -0.86600
O326        O  0.40446750  0.78344078  0.75305312    -0.86900
O327        O  0.40462461  0.69624571  0.75471672    -0.86400
O328        O  0.37174038  0.81608454  0.75279905    -0.87500
O329        O  0.37238255  0.66305198  0.75519144    -0.86600
O330        O  0.32920444  0.78455760  0.67706721    -0.87000
O331        O  0.32832919  0.78286237  0.83006426    -0.86800
O332        O  0.32723154  0.69530918  0.82840768    -0.86400
O333        O  0.32969186  0.69641847  0.67558328    -0.86800
O334        O  0.40448880  0.74053102  0.70883593    -0.87100
O335        O  0.40362760  0.73992663  0.79684003    -0.88400
Zr336      Zr  0.32782244  0.74013296  0.69815696     2.83100
Zr337      Zr  0.32779184  0.73943035  0.80699236     2.83500
Zr338      Zr  0.32779890  0.79421982  0.75332584     2.84100
Zr339      Zr  0.32816717  0.68511046  0.75218530     2.83400
Zr340      Zr  0.38210049  0.73983847  0.75275222     2.84200
O341        O  0.35514179  0.71224335  0.77982908    -1.09000
O342        O  0.35491816  0.76723689  0.72571495    -1.08500
C343        C  0.39649783  0.74098280  0.68399753     1.06100
C344        C  0.39599568  0.73969946  0.82174975     1.08800
C345        C  0.32941406  0.80937507  0.68509771     1.06300
C346        C  0.33067052  0.67153057  0.68332931     1.06700
C347        C  0.32603245  0.67049002  0.82056387     1.06300
C348        C  0.32831506  0.80775428  0.82231896     1.05800
C349        C  0.39656624  0.80826333  0.75293863     1.10200
C350        C  0.39713994  0.67131655  0.75613667     1.05800
H351        H  0.36647332  0.77826717  0.79173422     0.32400
O352        O  0.35526293  0.76711422  0.78041752    -1.30100
H353        H  0.36691489  0.70156617  0.71398093     0.32500
O354        O  0.35535218  0.71261856  0.72509369    -1.31500
C355        C  0.84463780  0.51344233  0.44481198     0.79800
N356        N  0.84762634  0.48979456  0.43122079    -0.78500
C357        C  0.84862243  0.46586909  0.44464177     0.82200
N358        N  0.84570562  0.46563285  0.47192155    -0.78500
C359        C  0.84251623  0.48909745  0.48572358     0.82300
N360        N  0.84199406  0.51293144  0.47209700    -0.80200
C361        C  0.02139668  0.51312611  0.26835744     0.79800
N362        N  0.00873065  0.48957927  0.27435714    -0.78500
C363        C  0.02250929  0.46603610  0.27673659     0.82200
N364        N  0.04961128  0.46617473  0.27269992    -0.78500
C365        C  0.06274836  0.48961837  0.26712154     0.82300
N366        N  0.04859724  0.51301595  0.26499401    -0.80200
C367        C  0.60440112  0.54513011  0.25703592     0.79800
N368        N  0.58105311  0.55896455  0.25347286    -0.78500
C369        C  0.55730218  0.54577277  0.25012478     0.82200
N370        N  0.55693893  0.51838332  0.25059521    -0.78500
C371        C  0.58019256  0.50431148  0.25382336     0.82300
N372        N  0.60389607  0.51772943  0.25684100    -0.80200
C373        C  0.60265091  0.71879228  0.05615583     0.79800
N374        N  0.57867229  0.71915966  0.06919772    -0.78500
C375        C  0.55521263  0.71974204  0.05528396     0.82200
N376        N  0.55569771  0.71994827  0.02787406    -0.78500
C377        C  0.57968270  0.71951101  0.01451955     0.82300
N378        N  0.60315560  0.71907509  0.02874086    -0.80200
O379        O  0.82538515  0.81609866  0.20486937    -0.86900
O380        O  0.83246050  0.66318784  0.20707853    -0.87100
O381        O  0.87213461  0.74091144  0.17431311    -0.88800
O382        O  0.78483993  0.73537416  0.17423151    -0.87500
O383        O  0.75237157  0.73442083  0.20716427    -0.87100
O384        O  0.90524251  0.74234263  0.20667856    -0.88500
O385        O  0.82975192  0.69569919  0.17415123    -0.87000
O386        O  0.82800962  0.78258276  0.17288463    -0.86600
Zr387      Zr  0.82849468  0.73938880  0.19631160     2.84300
O388        O  0.80278188  0.71130574  0.22399743    -1.08500
O389        O  0.85470903  0.76828200  0.22274126    -1.09300
C390        C  0.82673557  0.80752160  0.18029581     1.06200
C391        C  0.83118926  0.67095666  0.18213551     1.06100
C392        C  0.89697587  0.74169969  0.18197767     1.09100
C393        C  0.76013098  0.73389998  0.18227876     1.06900
H394        H  0.86925132  0.70294254  0.21240104     0.32400
O395        O  0.85753700  0.71386437  0.22348984    -1.29500
H396        H  0.78818620  0.77652787  0.21119826     0.32100
O397        O  0.79998957  0.76615449  0.22270616    -1.31200
O398        O  0.83511931  0.66536858  0.29581471    -0.86900
O399        O  0.82467582  0.81868818  0.29236880    -0.88400
O400        O  0.90814042  0.70067572  0.25299283    -0.87000
O401        O  0.75530103  0.69256293  0.25201127    -0.87100
O402        O  0.75026202  0.78088023  0.25054955    -0.86800
O403        O  0.90312204  0.78759161  0.24585329    -0.86600
O404        O  0.87172798  0.74484297  0.32738185    -0.86900
O405        O  0.78475489  0.74181932  0.32693257    -0.86400
O406        O  0.90464659  0.74544822  0.29483775    -0.87500
O407        O  0.75185390  0.73925577  0.29448626    -0.86600
O408        O  0.87697791  0.66635287  0.25145695    -0.87000
O409        O  0.86931354  0.81931205  0.24662831    -0.86800
O410        O  0.78179530  0.81481539  0.24961114    -0.86400
O411        O  0.78935290  0.66113198  0.25214554    -0.86800
O412        O  0.83264449  0.69846293  0.32814058    -0.87100
O413        O  0.82579228  0.78649451  0.32563504    -0.88400
Zr414      Zr  0.83171789  0.68590479  0.25123393     2.83100
Zr415      Zr  0.82650320  0.79499721  0.24930047     2.83500
Zr416      Zr  0.88317176  0.74298244  0.25055483     2.84100
Zr417      Zr  0.77450756  0.73788701  0.25084579     2.83400
Zr418      Zr  0.82863742  0.74180823  0.30479839     2.84200
O419        O  0.80039711  0.76720434  0.27712106    -1.09000
O420        O  0.85712429  0.71514227  0.27817398    -1.08500
C421        C  0.83540246  0.67361988  0.32055724     1.06100
C422        C  0.82424933  0.81121995  0.31733460     1.08800
C423        C  0.90135685  0.67551438  0.25271101     1.06300
C424        C  0.76425851  0.66804748  0.25240657     1.06700
C425        C  0.75730937  0.80601901  0.25023717     1.06300
C426        C  0.89426412  0.81206781  0.24473766     1.05800
C427        C  0.89650849  0.74551914  0.31964345     1.06200
C428        C  0.75988987  0.74128978  0.31919846     1.05800
H429        H  0.86576109  0.78207648  0.28822506     0.32400
O430        O  0.85506488  0.76994369  0.27735824    -1.30100
H431        H  0.79243614  0.70066359  0.29011830     0.32500
O432        O  0.80298144  0.71217233  0.27844615    -1.31500
C433        C  0.63279748  0.74905925  0.52460679     0.79800
N434        N  0.64617349  0.74665955  0.50090557    -0.78500
C435        C  0.63275847  0.74549168  0.47712844     0.82200
N436        N  0.60535049  0.74605441  0.47720565    -0.78500
C437        C  0.59165006  0.74804832  0.50095573     0.82300
N438        N  0.60545291  0.74950262  0.52459457    -0.80200
C439        C  0.80095248  0.93447866  0.52550755     0.79800
N440        N  0.80098830  0.92043492  0.50195415    -0.78500
C441        C  0.79931053  0.93323427  0.47777774     0.82200
N442        N  0.79837032  0.96067009  0.47729745    -0.78500
C443        C  0.79863729  0.97502147  0.50069148     0.82300
N444        N  0.80007373  0.96185066  0.52469982    -0.80200
C445        C  0.60345621  0.54402538  0.76725847     0.79800
N446        N  0.57984228  0.55778672  0.76647539    -0.78500
C447        C  0.55584037  0.54471387  0.76787523     0.82200
N448        N  0.55557071  0.51733707  0.76995513    -0.78500
C449        C  0.57913261  0.50325945  0.77102762     0.82300
N450        N  0.60302766  0.51669652  0.76964761    -0.80200
C451        C  0.55715434  0.72380329  0.94337613     0.79800
N452        N  0.55678930  0.72180816  0.97072564    -0.78500
C453        C  0.58023503  0.72035172  0.98487002     0.82200
N454        N  0.60417982  0.72069711  0.97150055    -0.78500
C455        C  0.60465894  0.72235967  0.94413932     0.82300
N456        N  0.58114909  0.72403706  0.93028463    -0.80200
C457        C  0.83700299  0.51295088  0.55614275     0.79800
N458        N  0.84021613  0.51256253  0.52897817    -0.78500
C459        C  0.83950478  0.48887416  0.51523330     0.82200
N460        N  0.83586962  0.46528536  0.52890599    -0.78500
C461        C  0.83307887  0.46546864  0.55624817     0.82300
N462        N  0.83356298  0.48936760  0.56955317    -0.80200
C463        C  0.02042359  0.51142486  0.71684131     0.79800
N464        N  0.04779203  0.51187172  0.71884559    -0.78500
C465        C  0.06214381  0.48849298  0.71939825     0.82200
N466        N  0.04896721  0.46448129  0.71837156    -0.78500
C467        C  0.02170349  0.46372559  0.71618108     0.82300
N468        N  0.00750539  0.48720233  0.71568465    -0.80200
O469        O  0.87496566  0.73470574  0.82376223    -0.86900
O470        O  0.86955343  0.74566890  0.67095252    -0.87100
O471        O  0.90678544  0.69682399  0.74334506    -0.88800
O472        O  0.90463958  0.78403824  0.74817424    -0.87500
O473        O  0.87175639  0.81653648  0.74969651    -0.87100
O474        O  0.87465840  0.66343439  0.74537689    -0.88500
O475        O  0.90336915  0.74325508  0.70258495    -0.87000
O476        O  0.90693917  0.73708223  0.79034593    -0.86600
Zr477      Zr  0.88328373  0.73980150  0.74724553     2.84300
O478        O  0.85500160  0.76800757  0.72204560    -1.08500
O479        O  0.85780409  0.71096807  0.77460767    -1.09300
C480        C  0.89954594  0.73516137  0.81529314     1.06200
C481        C  0.89453948  0.74571105  0.67819981     1.06100
C482        C  0.89927528  0.67187567  0.74360411     1.09100
C483        C  0.89661654  0.80884403  0.74890080     1.06900
H484        H  0.86660157  0.70283588  0.70749637     0.32400
O485        O  0.85561869  0.71332485  0.71969957    -1.29500
H486        H  0.86853261  0.77633236  0.78804565     0.32100
O487        O  0.85692552  0.76554125  0.77671557    -1.31200
O488        O  0.78231022  0.74123821  0.67451253    -0.86900
O489        O  0.78749023  0.73547788  0.82698771    -0.88400
O490        O  0.82787133  0.66491001  0.70260463    -0.87000
O491        O  0.82519469  0.81825872  0.70919672    -0.87100
O492        O  0.83030160  0.81302058  0.79663494    -0.86800
O493        O  0.83125330  0.66023192  0.79009398    -0.86600
O494        O  0.75378396  0.69364033  0.74966183    -0.86900
O495        O  0.75209864  0.78165458  0.75461655    -0.86400
O496        O  0.78677150  0.66120643  0.74795622    -0.87500
O497        O  0.78442097  0.81485743  0.75488734    -0.86600
O498        O  0.82644878  0.69856649  0.67070952    -0.87000
O499        O  0.83146453  0.69208385  0.82364887    -0.86800
O500        O  0.83192955  0.77892248  0.82799387    -0.86400
O501        O  0.82262042  0.78683970  0.67514749    -0.86800
O502        O  0.75058909  0.73925945  0.70812473    -0.87100
O503        O  0.75392572  0.73523301  0.79506680    -0.88400
Zr504      Zr  0.82692675  0.74159731  0.69480634     2.83100
Zr505      Zr  0.83061839  0.73668578  0.80332192     2.83500
Zr506      Zr  0.83007676  0.68457630  0.74724998     2.84100
Zr507      Zr  0.82840043  0.79345211  0.75155722     2.83400
Zr508      Zr  0.77474965  0.73810681  0.75089720     2.84200
O509        O  0.80215292  0.76487627  0.77849529    -1.09000
O510        O  0.80145910  0.71238134  0.72180562    -1.08500
C511        C  0.75773598  0.74057649  0.68310706     1.06100
C512        C  0.76253490  0.73440447  0.81960795     1.08800
C513        C  0.82652934  0.67352417  0.67808432     1.06300
C514        C  0.82246007  0.81134750  0.68422531     1.06700
C515        C  0.83189876  0.80400937  0.82105746     1.06300
C516        C  0.83120733  0.66746198  0.81515937     1.05800
C517        C  0.76187727  0.66887395  0.74861347     1.06200
C518        C  0.75974911  0.80656690  0.75575698     1.05800
H519        H  0.79228317  0.69817817  0.78730180     0.32400
O520        O  0.80297879  0.71006527  0.77616593    -1.30100
H521        H  0.78833757  0.77861214  0.71404651     0.32500
O522        O  0.80037480  0.76714613  0.72414660    -1.31500
C523        C  0.55623331  0.43384825  0.24793914     0.79800
N524        N  0.57990442  0.42031020  0.24914990    -0.78500
C525        C  0.60362638  0.43359741  0.25199716     0.82200
N526        N  0.60346572  0.46088225  0.25416675    -0.78500
C527        C  0.57989326  0.47475660  0.25297807     0.82300
N528        N  0.55624527  0.46118940  0.24998393    -0.80200
C529        C  0.60175557  0.23079878  0.05677124     0.79800
N530        N  0.60195995  0.23252880  0.02942923    -0.78500
C531        C  0.57842782  0.23320516  0.01538766     0.82200
N532        N  0.55456075  0.23241083  0.02882405    -0.78500
C533        C  0.55420438  0.23055881  0.05616364     0.82300
N534        N  0.57780305  0.23003222  0.06998971    -0.80200
O535        O  0.87502968  0.24083897  0.17413477    -0.86900
O536        O  0.87345488  0.23384062  0.32659254    -0.87100
O537        O  0.90794825  0.28137541  0.25393415    -0.88800
O538        O  0.90570086  0.19414746  0.24750819    -0.87500
O539        O  0.87303551  0.16144840  0.24794850    -0.87100
O540        O  0.87578065  0.31479372  0.25476897    -0.88500
O541        O  0.90597252  0.23392347  0.29369053    -0.87000
O542        O  0.90750761  0.24042610  0.20711235    -0.86600
Zr543      Zr  0.88438279  0.23827837  0.25009635     2.84300
O544        O  0.85689932  0.21071368  0.27677376    -1.08500
O545        O  0.85810668  0.26690382  0.22339118    -1.09300
C546        C  0.89977306  0.24079762  0.18229400     1.06200
C547        C  0.89820334  0.23297530  0.31849379     1.06100
C548        C  0.90040031  0.30627385  0.25564237     1.09100
C549        C  0.89790753  0.16928855  0.24743570     1.06900
H550        H  0.86929941  0.27557828  0.28956514     0.32400
O551        O  0.85767301  0.26525855  0.27785565    -1.29500
H552        H  0.86857563  0.20111448  0.21027674     0.32100
O553        O  0.85734742  0.21213910  0.22175537    -1.31200
O554        O  0.78571677  0.23877432  0.32592253    -0.86900
O555        O  0.78706847  0.24097184  0.17232792    -0.88400
O556        O  0.83323263  0.31495385  0.29585800    -0.87000
O557        O  0.82659503  0.16147180  0.29153849    -0.87100
O558        O  0.83023145  0.16397970  0.20377074    -0.86800
O559        O  0.83502826  0.31708613  0.20791759    -0.86600
O560        O  0.75459694  0.28422741  0.24880223    -0.86900
O561        O  0.75291348  0.19626240  0.24651127    -0.86400
O562        O  0.78757908  0.31677554  0.25100152    -0.87500
O563        O  0.78553459  0.16346942  0.24511291    -0.86600
O564        O  0.83432606  0.28146782  0.32794074    -0.87000
O565        O  0.83488578  0.28499258  0.17461639    -0.86800
O566        O  0.83100492  0.19741377  0.17169239    -0.86400
O567        O  0.82719796  0.19357569  0.32502397    -0.86800
O568        O  0.75294665  0.23939368  0.29317666    -0.87100
O569        O  0.75440871  0.23992833  0.20514451    -0.88400
Zr570      Zr  0.82982824  0.23808246  0.30429267     2.83100
Zr571      Zr  0.83069211  0.24065666  0.19529800     2.83500
Zr572      Zr  0.83121446  0.29389109  0.25128149     2.84100
Zr573      Zr  0.82957260  0.18478832  0.24831360     2.83400
Zr574      Zr  0.77587330  0.24003981  0.24934811     2.84200
O575        O  0.80290795  0.21309120  0.22162490    -1.09000
O576        O  0.80297990  0.26661275  0.27776310    -1.08500
C577        C  0.76087259  0.23893118  0.31806048     1.06100
C578        C  0.76224591  0.24025377  0.18027181     1.08800
C579        C  0.83529610  0.30651425  0.32048325     1.06300
C580        C  0.82571794  0.16896434  0.31649618     1.06700
C581        C  0.83082949  0.17239893  0.17908800     1.06300
C582        C  0.83664614  0.30964440  0.18296698     1.05800
C583        C  0.76272469  0.30896557  0.24978785     1.06200
C584        C  0.76072927  0.17137623  0.24500515     1.05800
H585        H  0.79284672  0.27953801  0.21159902     0.32400
O586        O  0.80363240  0.26785702  0.22286347    -1.30100
H587        H  0.79068820  0.20050613  0.28675058     0.32500
O588        O  0.80244256  0.21178845  0.27607686    -1.31500
C589        C  0.55415203  0.43271996  0.77296867     0.79800
N590        N  0.55485956  0.46013642  0.77361401    -0.78500
C591        C  0.57876834  0.47354535  0.77213271     0.82200
N592        N  0.60219603  0.45934409  0.77015579    -0.78500
C593        C  0.60171137  0.43191168  0.76944252     0.82300
N594        N  0.57771432  0.41892335  0.77104567    -0.80200
C595        C  0.55616105  0.23644118  0.94409983     0.79800
N596        N  0.58027989  0.23763860  0.93122110    -0.78500
C597        C  0.60367500  0.23696543  0.94536661     0.82200
N598        N  0.60291426  0.23570411  0.97269152    -0.78500
C599        C  0.57892253  0.23490438  0.98584209     0.82300
N600        N  0.55555630  0.23530355  0.97150566    -0.80200
C601        C  0.63490902  0.22422401  0.52595116     0.79800
N602        N  0.60766496  0.22675195  0.52543948    -0.78500
C603        C  0.59442358  0.22978144  0.50163331     0.82200
N604        N  0.60868031  0.23058381  0.47814483    -0.78500
C605        C  0.63603595  0.22828744  0.47846765     0.82300
N606        N  0.64896008  0.22533977  0.50245915    -0.80200
C607        C  0.80030945  0.04539584  0.47538777     0.79800
N608        N  0.80056140  0.05930024  0.49908808    -0.78500
C609        C  0.80003468  0.04622348  0.52318795     0.82200
N610        N  0.79890212  0.01884824  0.52354291    -0.78500
C611        C  0.79858433  0.00466627  0.50009099     0.82300
N612        N  0.79931853  0.01801243  0.47615275    -0.80200
O613        O  0.87595339  0.23745185  0.82501708    -0.86900
O614        O  0.86865033  0.23667613  0.67198315    -0.87100
O615        O  0.90488398  0.19413216  0.74762382    -0.88800
O616        O  0.90525637  0.28149911  0.74369299    -0.87500
O617        O  0.87284018  0.31428845  0.74785564    -0.87100
O618        O  0.87243234  0.16111516  0.74698213    -0.88500
O619        O  0.90254504  0.23581333  0.70353263    -0.87000
O620        O  0.90758786  0.23853966  0.79116771    -0.86600
Zr621      Zr  0.88297993  0.23798786  0.74861457     2.84300
O622        O  0.85451218  0.26553461  0.72327418    -1.08500
O623        O  0.85736734  0.21038822  0.77705191    -1.09300
C624        C  0.90044784  0.23785096  0.81623059     1.06200
C625        C  0.89367229  0.23533715  0.67901759     1.06100
C626        C  0.89713269  0.16927218  0.74675280     1.09100
C627        C  0.89737761  0.30633272  0.74381626     1.06900
H628        H  0.86514796  0.19948150  0.71035976     0.32400
O629        O  0.85472951  0.21086820  0.72223838    -1.29500
H630        H  0.86917587  0.27638446  0.78851489     0.32100
O631        O  0.85741602  0.26511787  0.77781558    -1.31200
O632        O  0.78177683  0.23893938  0.67627940    -0.86900
O633        O  0.78814678  0.23577213  0.82970183    -0.88400
O634        O  0.82374971  0.16110965  0.70730279    -0.87000
O635        O  0.82914382  0.31560279  0.70915297    -0.87100
O636        O  0.83009073  0.31373717  0.79674274    -0.86800
O637        O  0.83401584  0.16124596  0.79438544    -0.86600
O638        O  0.75256710  0.19341746  0.75376893    -0.86900
O639        O  0.75234113  0.28138729  0.75646240    -0.86400
O640        O  0.78570921  0.16107854  0.75352627    -0.87500
O641        O  0.78476468  0.31450133  0.75430004    -0.86600
O642        O  0.82294082  0.19441599  0.67503246    -0.87000
O643        O  0.83414367  0.19351494  0.82764833    -0.86800
O644        O  0.83100594  0.28042412  0.82885447    -0.86400
O645        O  0.82839069  0.28349672  0.67574323    -0.86800
O646        O  0.75045839  0.23611826  0.71036240    -0.87100
O647        O  0.75440859  0.23605877  0.79797651    -0.88400
Zr648      Zr  0.82633098  0.23869660  0.69672899     2.83100
Zr649      Zr  0.83102687  0.23725450  0.80554042     2.83500
Zr650      Zr  0.82902731  0.18348046  0.75073537     2.84100
Zr651      Zr  0.82873832  0.29240611  0.75223630     2.83400
Zr652      Zr  0.77450687  0.23755543  0.75334276     2.84200
O653        O  0.80251748  0.26469223  0.77997577    -1.09000
O654        O  0.80068490  0.21086580  0.72482423    -1.08500
C655        C  0.75740911  0.23713991  0.68524629     1.06100
C656        C  0.76310913  0.23518652  0.82249970     1.08800
C657        C  0.82216909  0.16943608  0.68266261     1.06300
C658        C  0.82952995  0.30821773  0.68419561     1.06700
C659        C  0.83094623  0.30542136  0.82147341     1.06300
C660        C  0.83520730  0.16885987  0.81930056     1.05800
C661        C  0.76087163  0.16868891  0.75425917     1.06200
C662        C  0.76008996  0.30630033  0.75618993     1.05800
H663        H  0.79220720  0.19843287  0.79112850     0.32400
O664        O  0.80270387  0.20998048  0.77946024    -1.30100
H665        H  0.78849700  0.27720692  0.71472134     0.32500
O666        O  0.80016846  0.26578393  0.72533934    -1.31500
O667        O  0.28568095  0.24330108  0.17358701    -0.86900
O668        O  0.28360460  0.24378213  0.32662107    -0.87100
O669        O  0.25173602  0.19760795  0.24727861    -0.88800
O670        O  0.25245000  0.28531183  0.25309793    -0.87500
O671        O  0.28547941  0.31752654  0.25396409    -0.87100
O672        O  0.28415776  0.16459101  0.24795230    -0.88500
O673        O  0.25132230  0.24243782  0.29357908    -0.87000
O674        O  0.25240933  0.24367140  0.20576444    -0.86600
Zr675      Zr  0.27409657  0.24146234  0.25015883     2.84300
O676        O  0.30131690  0.26813852  0.27806551    -1.08500
O677        O  0.30145245  0.21461117  0.22296825    -1.09300
C678        C  0.26076880  0.24408705  0.18101776     1.06200
C679        C  0.25880386  0.24417522  0.31846129     1.06100
C680        C  0.25945723  0.17270114  0.24621168     1.09100
C681        C  0.26057142  0.31003086  0.25458936     1.06900
H682        H  0.28886999  0.20225238  0.28886341     0.32400
O683        O  0.30036763  0.21350298  0.27785367    -1.29500
H684        H  0.29048600  0.28108829  0.21282261     0.32100
O685        O  0.30157056  0.26939700  0.22377248    -1.31200
O686        O  0.37198003  0.23857288  0.32722833    -0.86900
O687        O  0.37215075  0.24250848  0.17370952    -0.88400
O688        O  0.32854381  0.16413018  0.29411886    -0.87000
O689        O  0.33034856  0.31711424  0.29574532    -0.87100
O690        O  0.32863819  0.31964059  0.20936657    -0.86800
O691        O  0.32630502  0.16570763  0.20611385    -0.86600
O692        O  0.40494920  0.19656259  0.24904638    -0.86900
O693        O  0.40590122  0.28391663  0.25307005    -0.86400
O694        O  0.37178349  0.16420444  0.24940922    -0.87500
O695        O  0.37345131  0.31699256  0.25136996    -0.86600
O696        O  0.32799079  0.19665116  0.32707436    -0.87000
O697        O  0.32764562  0.19876995  0.17356234    -0.86800
O698        O  0.32960715  0.28740163  0.17607882    -0.86400
O699        O  0.32968800  0.28394527  0.32808918    -0.86800
O700        O  0.40497200  0.23741220  0.29481860    -0.87100
O701        O  0.40484998  0.24264631  0.20653115    -0.88400
Zr702      Zr  0.32800688  0.24051897  0.30518637     2.83100
Zr703      Zr  0.32889549  0.24236523  0.19646746     2.83500
Zr704      Zr  0.32799373  0.18678848  0.25033196     2.84100
Zr705      Zr  0.32926069  0.29544743  0.25181840     2.83400
Zr706      Zr  0.38305469  0.24051310  0.25086095     2.84200
O707        O  0.35655199  0.26885262  0.22397421    -1.09000
O708        O  0.35533484  0.21342329  0.27786250    -1.08500
C709        C  0.39686365  0.23701194  0.31961791     1.06100
C710        C  0.39689254  0.24302583  0.18166177     1.08800
C711        C  0.32840868  0.17187025  0.31904339     1.06300
C712        C  0.33061869  0.30884512  0.32042904     1.06700
C713        C  0.32924383  0.31213725  0.18447589     1.06300
C714        C  0.32630522  0.17392062  0.18139092     1.05800
C715        C  0.39671284  0.17183383  0.24861012     1.06200
C716        C  0.39812638  0.30877289  0.25249795     1.05800
H717        H  0.36665535  0.20280992  0.21161594     0.32400
O718        O  0.35562249  0.21396934  0.22315891    -1.30100
H719        H  0.36758893  0.27843336  0.29020838     0.32500
O720        O  0.35616934  0.26762550  0.27870872    -1.31500
C721        C  0.82853375  0.13181684  0.61637321    -0.11800
C722        C  0.80805218  0.11246475  0.61882490     0.14700
C723        C  0.79343565  0.11059034  0.64324685     0.01600
C724        C  0.79908340  0.12877315  0.66423597    -0.16200
C725        C  0.81898554  0.14879570  0.66134856    -0.11000
C726        C  0.83445986  0.14959311  0.63745464     0.08300
C727        C  0.80339936  0.09426425  0.59560200     0.09400
S728        S  0.76746685  0.08568538  0.64901274    -0.25300
H729        H  0.78731032  0.12780895  0.68264566     0.19600
S730        S  0.86284834  0.17196028  0.63318539    -0.31000
H731        H  0.84031174  0.13277238  0.59796760     0.09900
C732        C  0.78761441  0.10247378  0.57345215     0.03100
C733        C  0.78661523  0.08624847  0.55024364    -0.13300
C734        C  0.80110574  0.06189955  0.54868832    -0.09000
C735        C  0.81658172  0.05358752  0.57125044     0.06600
C736        C  0.81730705  0.06970096  0.59446414    -0.14100
S737        S  0.76884976  0.13369774  0.57480632    -0.31000
H738        H  0.77455487  0.09258371  0.53317036     0.10800
S739        S  0.83752724  0.02385905  0.57111410    -0.28100
H740        H  0.82978709  0.06364696  0.61136502     0.08100
H741        H  0.87075818  0.17149438  0.66045088     0.26500
H742        H  0.75833673  0.13242717  0.54847066     0.21300
H743        H  0.84712944  0.02784089  0.54468560     0.26600
H744        H  0.76136928  0.08021188  0.62189713     0.15500
C745        C  0.68638823  0.20612022  0.57980417    -0.11800
C746        C  0.67930128  0.22428624  0.60031394     0.14700
C747        C  0.65609756  0.24044375  0.59728279     0.01600
C748        C  0.64145807  0.23936408  0.57318815    -0.16200
C749        C  0.64932648  0.22225975  0.55201158    -0.11000
C750        C  0.67148053  0.20471374  0.55577154     0.08300
C751        C  0.69796866  0.22791184  0.62330058     0.09400
S752        S  0.64465119  0.26332736  0.62316196    -0.25300
H753        H  0.62424877  0.25259647  0.57065747     0.19600
S754        S  0.68045416  0.18001920  0.53046119    -0.31000
H755        H  0.70404445  0.19354400  0.58244573     0.09900
C756        C  0.70084754  0.20820849  0.64359306     0.03100
C757        C  0.71960978  0.21229837  0.66438541    -0.13300
C758        C  0.73583930  0.23550820  0.66494415    -0.09000
C759        C  0.73251466  0.25544214  0.64484500     0.06600
C760        C  0.71375045  0.25136265  0.62421632    -0.14100
S761        S  0.68052340  0.17801606  0.64318265    -0.31000
H762        H  0.72215447  0.19706811  0.67986713     0.10800
S763        S  0.75118918  0.28665438  0.64452186    -0.28100
H764        H  0.71147140  0.26655426  0.60863516     0.08100
H765        H  0.70217832  0.16840248  0.54453562     0.26500
H766        H  0.69675446  0.16325637  0.66118414     0.21300
H767        H  0.75604021  0.28782039  0.67241446     0.26600
H768        H  0.65443543  0.24819040  0.64508080     0.15500
C769        C  0.69883296  0.21885579  0.86030119    -0.11800
C770        C  0.70098771  0.23623557  0.88245626     0.14700
C771        C  0.72458607  0.25173484  0.88601642     0.01600
C772        C  0.74510882  0.25026024  0.86667313    -0.16200
C773        C  0.74254678  0.23356368  0.84390896    -0.11000
C774        C  0.71938724  0.21710329  0.84118777     0.08300
C775        C  0.67740619  0.23859808  0.90034488     0.09400
S776        S  0.72908278  0.27483824  0.91378792    -0.25300
H777        H  0.76277256  0.26294945  0.86892166     0.19600
S778        S  0.71489438  0.19319641  0.81408982    -0.31000
H779        H  0.68080843  0.20673032  0.85777073     0.09900
C780        C  0.65645651  0.25677901  0.89437122     0.03100
C781        C  0.63274208  0.25604543  0.90968436    -0.13300
C782        C  0.62961116  0.23748240  0.93086749    -0.09000
C783        C  0.65090577  0.21949863  0.93699230     0.06600
C784        C  0.67459463  0.22035905  0.92173668    -0.14100
S785        S  0.65967542  0.28030713  0.86670057    -0.31000
H786        H  0.61644449  0.26981398  0.90502286     0.10800
S787        S  0.64852475  0.19373815  0.96256344    -0.28100
H788        H  0.69059807  0.20606071  0.92590225     0.08100
H789        H  0.74230400  0.18626778  0.81237062     0.26500
H790        H  0.63475368  0.29331809  0.87042702     0.21300
H791        H  0.62134245  0.18743940  0.95752379     0.26600
H792        H  0.71219704  0.26144749  0.93217707     0.15500
C793        C  0.65155988  0.37661260  0.75096272    -0.11800
C794        C  0.67409619  0.38396119  0.76627643     0.14700
C795        C  0.67333038  0.40798152  0.78168356     0.01600
C796        C  0.64977188  0.42371401  0.78173369    -0.16200
C797        C  0.62693721  0.41604465  0.76676886    -0.11000
C798        C  0.62824739  0.39239773  0.75074918     0.08300
C799        C  0.69763559  0.36562934  0.76548400     0.09400
S800        S  0.70107178  0.41938445  0.80235780    -0.25300
H801        H  0.64903297  0.44173326  0.79411270     0.19600
S802        S  0.60136715  0.38157696  0.72875811    -0.31000
H803        H  0.65223639  0.35839264  0.73885493     0.09900
C804        C  0.70030143  0.34429232  0.78408737     0.03100
C805        C  0.72088933  0.32520450  0.78052235    -0.13300
C806        C  0.73887240  0.32701826  0.75870289    -0.09000
C807        C  0.73616727  0.34848077  0.74009643     0.06600
C808        C  0.71572745  0.36763001  0.74381564    -0.14100
S809        S  0.67710653  0.34106722  0.81199949    -0.31000
H810        H  0.72306111  0.30877211  0.79477867     0.10800
S811        S  0.75697432  0.35164247  0.71037839    -0.28100
H812        H  0.71326042  0.38368605  0.72916451     0.08100
H813        H  0.59384562  0.40782441  0.72095871     0.26500
H814        H  0.68814485  0.31723854  0.82277331     0.21300
H815        H  0.76059361  0.32381028  0.70631581     0.26600
H816        H  0.72129139  0.40280431  0.79155857     0.15500
C817        C  0.69827286  0.25126582  0.36133456    -0.11800
C818        C  0.70305499  0.23340835  0.38282044     0.14700
C819        C  0.72620418  0.21685148  0.38221634     0.01600
C820        C  0.74450653  0.21925245  0.36089270    -0.16200
C821        C  0.74018057  0.23749496  0.33961791    -0.11000
C822        C  0.71663690  0.25364457  0.33986379     0.08300
C823        C  0.68489419  0.23381691  0.40662566     0.09400
S824        S  0.73395772  0.19271878  0.40837382    -0.25300
H825        H  0.76229478  0.20653824  0.36082051     0.19600
S826        S  0.70971962  0.27878220  0.31445200    -0.31000
H827        H  0.68064260  0.26416756  0.36182842     0.09900
C828        C  0.69233547  0.24739904  0.43047433     0.03100
C829        C  0.67589842  0.24537354  0.45344922    -0.13300
C830        C  0.65207922  0.22997728  0.45320678    -0.09000
C831        C  0.64468461  0.21642808  0.42916422     0.06600
C832        C  0.66086174  0.21891711  0.40605605    -0.14100
S833        S  0.72291941  0.26719025  0.43164740    -0.31000
H834        H  0.68163969  0.25582183  0.47176020     0.10800
S835        S  0.61617464  0.19398350  0.42719343    -0.28100
H836        H  0.65537185  0.20810151  0.38785815     0.08100
H837        H  0.73673219  0.28668982  0.31100880     0.26500
H838        H  0.71988112  0.27653719  0.45827817     0.21300
H839        H  0.61925324  0.18344564  0.45338217     0.26600
H840        H  0.70722009  0.18718101  0.41588105     0.15500
C841        C  0.81509080  0.06576055  0.40210904    -0.11800
C842        C  0.80899891  0.09333610  0.40307090     0.14700
C843        C  0.79760131  0.10425442  0.42672886     0.01600
C844        C  0.79467373  0.08799923  0.44956245    -0.16200
C845        C  0.80175907  0.06047653  0.44930827    -0.11000
C846        C  0.81116576  0.04911082  0.42466745     0.08300
C847        C  0.81550182  0.11063994  0.37962183     0.09400
S848        S  0.78666947  0.13892391  0.42917368    -0.25300
H849        H  0.78662735  0.09709546  0.46774090     0.19600
S850        S  0.81962014  0.01401589  0.42056664    -0.31000
H851        H  0.82332477  0.05722392  0.38372947     0.09900
C852        C  0.83594026  0.13035594  0.38119366     0.03100
C853        C  0.83900448  0.14892941  0.36011527    -0.13300
C854        C  0.82242417  0.14786266  0.33721112    -0.09000
C855        C  0.80266542  0.12732835  0.33518437     0.06600
C856        C  0.79964273  0.10877965  0.35628927    -0.14100
S857        S  0.85820223  0.13177615  0.41001577    -0.31000
H858        H  0.85437258  0.16440784  0.36143123     0.10800
S859        S  0.77944855  0.12483000  0.30726430    -0.28100
H860        H  0.78390706  0.09364107  0.35513611     0.08100
H861        H  0.79310576  0.00533408  0.42583282     0.26500
H862        H  0.87338992  0.15414586  0.40140431     0.21300
H863        H  0.77565325  0.15282640  0.30457258     0.26600
H864        H  0.77946158  0.14185847  0.40188771     0.15500
C865        C  0.45970268  0.25970570  0.14115536    -0.11800
C866        C  0.45839196  0.23998094  0.12091273     0.14700
C867        C  0.43601838  0.22245030  0.11980729     0.01600
C868        C  0.41595037  0.22437296  0.13954488    -0.16200
C869        C  0.41768709  0.24349120  0.16041973    -0.11000
C870        C  0.43951806  0.26185168  0.16076558     0.08300
C871        C  0.48179005  0.23670360  0.10279747     0.09400
S872        S  0.43243602  0.19666538  0.09433747    -0.25300
H873        H  0.39917973  0.21034202  0.13902097     0.19600
S874        S  0.44293797  0.28852559  0.18537743    -0.31000
H875        H  0.47683356  0.27327408  0.14189653     0.09900
C876        C  0.48619062  0.25408384  0.08074199     0.03100
C877        C  0.50941823  0.25080646  0.06490413    -0.13300
C878        C  0.52845344  0.23073585  0.07102476    -0.09000
C879        C  0.52342724  0.21279037  0.09263191     0.06600
C880        C  0.50028716  0.21609717  0.10835956    -0.14100
S881        S  0.46232582  0.28047955  0.07298486    -0.31000
H882        H  0.51328376  0.26451267  0.04832383     0.10800
S883        S  0.54543646  0.18501456  0.10087805    -0.28100
H884        H  0.49667529  0.20256020  0.12516725     0.08100
H885        H  0.41544171  0.29142350  0.19134170     0.26500
H886        H  0.47665458  0.29164227  0.05116767     0.21300
H887        H  0.55377750  0.18009913  0.07419001     0.26600
H888        H  0.44697392  0.21012509  0.07404264     0.15500
C889        C  0.67420267  0.22011698  0.08042962    -0.11800
C890        C  0.67427259  0.23554401  0.10416078     0.14700
C891        C  0.65081256  0.24977461  0.11166375     0.01600
C892        C  0.62756472  0.24747811  0.09596813    -0.16200
C893        C  0.62714815  0.23172724  0.07242366    -0.11000
C894        C  0.65084940  0.21783459  0.06462097     0.08300
C895        C  0.69803164  0.23467689  0.12216208     0.09400
S896        S  0.64904709  0.27073810  0.14141094    -0.25300
H897        H  0.60967103  0.25845159  0.10206023     0.19600
S898        S  0.65214951  0.19543953  0.03599912    -0.31000
H899        H  0.69210163  0.20889692  0.07482791     0.09900
C900        C  0.69747409  0.21939671  0.14611732     0.03100
C901        C  0.71884126  0.22151520  0.16445066    -0.13300
C902        C  0.74077434  0.23880528  0.15953782    -0.09000
C903        C  0.74135113  0.25393437  0.13529464     0.06600
C904        C  0.72026562  0.25125700  0.11663674    -0.14100
S905        S  0.66927448  0.19749172  0.15352748    -0.31000
H906        H  0.71842772  0.20969051  0.18282867     0.10800
S907        S  0.76702095  0.27861983  0.12797800    -0.28100
H908        H  0.72041184  0.26335515  0.09841231     0.08100
H909        H  0.62585054  0.18534270  0.03934351     0.26500
H910        H  0.67908446  0.18746326  0.17820273     0.21300
H911        H  0.76974389  0.28766002  0.15476479     0.26600
H912        H  0.67630740  0.27844209  0.14163854     0.15500
C913        C  0.50546911  0.37911227  0.23125356    -0.11800
C914        C  0.48382203  0.38663345  0.24773842     0.14700
C915        C  0.48519713  0.41088122  0.26259973     0.01600
C916        C  0.50867792  0.42652141  0.26150532    -0.16200
C917        C  0.53074819  0.41861210  0.24560694    -0.11000
C918        C  0.52866488  0.39499294  0.22964472     0.08300
C919        C  0.46063181  0.36809395  0.24962601     0.09400
S920        S  0.45802340  0.42254579  0.28378046    -0.25300
H921        H  0.50999342  0.44459354  0.27376029     0.19600
S922        S  0.55446024  0.38426992  0.20632254    -0.31000
H923        H  0.50422668  0.36068715  0.21950945     0.09900
C924        C  0.44175675  0.36601955  0.22850533     0.03100
C925        C  0.42104811  0.34689303  0.23028058    -0.13300
C926        C  0.41922797  0.32954966  0.25254054    -0.09000
C927        C  0.43778797  0.33198534  0.27395480     0.06600
C928        C  0.45834329  0.35132792  0.27229958    -0.14100
S929        S  0.44413460  0.38770483  0.19931327    -0.31000
H930        H  0.40661017  0.34490628  0.21400429     0.10800
S931        S  0.43506267  0.31091024  0.30354957    -0.28100
H932        H  0.47299980  0.35312923  0.28839578     0.08100
H933        H  0.56235375  0.41055299  0.19899603     0.26500
H934        H  0.42129102  0.37766226  0.18581268     0.21300
H935        H  0.45477602  0.32425826  0.31899170     0.26600
H936        H  0.43703972  0.41068533  0.26885995     0.15500
C937        C  0.67683237  0.41127031  0.24391809    -0.11800
C938        C  0.67477369  0.38423441  0.25187286     0.14700
C939        C  0.65008481  0.37425672  0.26174530     0.01600
C940        C  0.62755953  0.39103291  0.26183404    -0.16200
C941        C  0.62902307  0.41789459  0.25272632    -0.11000
C942        C  0.65425055  0.42817633  0.24396010     0.08300
C943        C  0.69848423  0.36662913  0.24918657     0.09400
S944        S  0.64586491  0.34022726  0.27414165    -0.25300
H945        H  0.60864397  0.38289949  0.26916457     0.19600
S946        S  0.65895171  0.46182177  0.23094912    -0.31000
H947        H  0.69595957  0.41892836  0.23660565     0.09900
C948        C  0.69974835  0.34630117  0.22934645     0.03100
C949        C  0.72123936  0.32795039  0.22970066    -0.13300
C950        C  0.74155802  0.32980676  0.24933523    -0.09000
C951        C  0.74051211  0.35086420  0.26848885     0.06600
C952        C  0.71922556  0.36920662  0.26803536    -0.14100
S953        S  0.67402030  0.34381205  0.20367463    -0.31000
H954        H  0.72219565  0.31200934  0.21477352     0.10800
S955        S  0.76448599  0.35450988  0.29519167    -0.28100
H956        H  0.71811554  0.38484867  0.28330142     0.08100
H957        H  0.63652095  0.46048785  0.21362373     0.26500
H958        H  0.68462025  0.32102807  0.19046560     0.21300
H959        H  0.76818690  0.32672680  0.29965690     0.26600
H960        H  0.67238673  0.33681992  0.28350053     0.15500
C961        C  0.97291348  0.40642508  0.70172552    -0.11800
C962        C  0.97607872  0.39069894  0.72505322     0.14700
C963        C  0.99641530  0.39754852  0.74381003     0.01600
C964        C  0.01170825  0.42096215  0.73980452    -0.16200
C965        C  0.00745136  0.43758144  0.71727290    -0.11000
C966        C  0.98855593  0.42958833  0.69749641     0.08300
C967        C  0.95634035  0.36886160  0.73031059     0.09400
S968        S  0.00310825  0.37791518  0.77374038    -0.25300
H969        H  0.02648196  0.42672533  0.75485968     0.19600
S970        S  0.98365860  0.44777715  0.66638736    -0.31000
H971        H  0.95768088  0.40096276  0.68702372     0.09900
C972        C  0.93585056  0.37210098  0.74972798     0.03100
C973        C  0.91706152  0.35135312  0.75372975    -0.13300
C974        C  0.91799487  0.32742953  0.73861301    -0.09000
C975        C  0.93804072  0.32470374  0.71838341     0.06600
C976        C  0.95715236  0.34524394  0.71475053    -0.14100
S977        S  0.93298481  0.40312236  0.76871326    -0.31000
H978        H  0.90143422  0.35383464  0.76859473     0.10800
S979        S  0.93931507  0.29658287  0.69527635    -0.28100
H980        H  0.97242748  0.34309284  0.69925909     0.08100
H981        H  0.00987233  0.45848895  0.66497632     0.26500
H982        H  0.91072786  0.39543415  0.78451087     0.21300
H983        H  0.91121104  0.29382537  0.69276995     0.26600
H984        H  0.99362309  0.35319154  0.76358000     0.15500
C985        C  0.94371188  0.61107421  0.75700289    -0.11800
C986        C  0.95745118  0.60882006  0.73233710     0.14700
C987        C  0.95344813  0.62871193  0.71227905     0.01600
C988        C  0.93496806  0.64959975  0.71684142    -0.16200
C989        C  0.92052339  0.65125012  0.74112121    -0.11000
C990        C  0.92561342  0.63225469  0.76172920     0.08300
C991        C  0.97440692  0.58462917  0.72755578     0.09400
S992        S  0.97073362  0.62822721  0.68024853    -0.25300
H993        H  0.93133495  0.66432007  0.70106145     0.19600
S994        S  0.90990754  0.63415390  0.79449318    -0.31000
H995        H  0.94694511  0.59606240  0.77258315     0.09900
C996        C  0.99978112  0.58150709  0.73989750     0.03100
C997        C  0.01468478  0.55781620  0.73539578    -0.13300
C998        C  0.00481126  0.53705497  0.71867550    -0.09000
C999        C  0.97974199  0.54090426  0.70550155     0.06600
C1000       C  0.96475139  0.56435494  0.71038215    -0.14100
S1001       S  0.01320921  0.60772008  0.76134713    -0.31000
H1002       H  0.03380268  0.55517153  0.74559072     0.10800
S1003       S  0.96618504  0.51743288  0.68131498    -0.28100
H1004       H  0.94544263  0.56697821  0.70048441     0.08100
H1005       H  0.90639562  0.66231352  0.79462971     0.26500
H1006       H  0.03939065  0.59701101  0.76346469     0.21300
H1007       H  0.99137456  0.51113710  0.66988285     0.26600
H1008       H  0.99385527  0.61454937  0.68926091     0.15500
C1009       C  0.84059239  0.39374918  0.58328167    -0.11800
C1010       C  0.82529550  0.39538598  0.60700626     0.14700
C1011       C  0.81102781  0.41927367  0.61282528     0.01600
C1012       C  0.81341334  0.44140833  0.59547341    -0.16200
C1013       C  0.82956179  0.44029387  0.57211029    -0.11000
C1014       C  0.84304234  0.41589377  0.56589380     0.08300
C1015       C  0.82654555  0.37271539  0.62633113     0.09400
S1016       S  0.78994170  0.42292265  0.64229717    -0.25300
H1017       H  0.80268794  0.45980965  0.60043569     0.19600
S1018       S  0.86535226  0.41219024  0.53746652    -0.31000
H1019       H  0.85168646  0.37541492  0.57891018     0.09900
C1020       C  0.81251138  0.34847697  0.62172686     0.03100
C1021       C  0.81479133  0.32729827  0.64034598    -0.13300
C1022       C  0.83057693  0.32996074  0.66369861    -0.09000
C1023       C  0.84554977  0.35402628  0.66759197     0.06600
C1024       C  0.84303939  0.37520934  0.64912439    -0.14100
S1025       S  0.79072700  0.34501364  0.59278076    -0.31000
H1026       H  0.80366164  0.30885203  0.63706505     0.10800
S1027       S  0.86945465  0.35839502  0.69459812    -0.28100
H1028       H  0.85446135  0.39361330  0.65221306     0.08100
H1029       H  0.87867991  0.43687459  0.54189251     0.26500
H1030       H  0.78535225  0.31731999  0.59601768     0.21300
H1031       H  0.87828451  0.33146540  0.69370860     0.26600
H1032       H  0.78297223  0.39551288  0.64463000     0.15500
C1033       C  0.81453716  0.60712266  0.64287355    -0.11800
C1034       C  0.83304288  0.60889384  0.62159107     0.14700
C1035       C  0.84708109  0.63327924  0.61712698     0.01600
C1036       C  0.84314220  0.65497819  0.63477506    -0.16200
C1037       C  0.82578121  0.65261914  0.65701901    -0.11000
C1038       C  0.81055332  0.62873150  0.66043742     0.08300
C1039       C  0.83644950  0.58506570  0.60410535     0.09400
S1040       S  0.87103742  0.63757028  0.59007627    -0.25300
H1041       H  0.85486563  0.67323885  0.63201448     0.19600
S1042       S  0.78543118  0.62471085  0.68650445    -0.31000
H1043       H  0.80307836  0.58870732  0.64577247     0.09900
C1044       C  0.84785158  0.56104897  0.61412406     0.03100
C1045       C  0.84824196  0.53806617  0.59773451    -0.13300
C1046       C  0.83745721  0.53853432  0.57149027    -0.09000
C1047       C  0.82674148  0.56299506  0.56130456     0.06600
C1048       C  0.82652347  0.58596001  0.57767732    -0.14100
S1049       S  0.86205521  0.55971336  0.64771212    -0.31000
H1050       H  0.85686226  0.51954529  0.60548144     0.10800
S1051       S  0.81142668  0.56603431  0.52847287    -0.28100
H1052       H  0.81760977  0.60445434  0.57013415     0.08100
H1053       H  0.77786295  0.65207351  0.68711975     0.26500
H1054       H  0.87085296  0.53274060  0.64664460     0.21300
H1055       H  0.79651639  0.54197281  0.53074966     0.26600
H1056       H  0.87969422  0.61056467  0.58922806     0.15500
C1057       C  0.70119581  0.71148058  0.85870488    -0.11800
C1058       C  0.70106633  0.72997260  0.88006671     0.14700
C1059       C  0.72202437  0.74915957  0.88226724     0.01600
C1060       C  0.74232308  0.74973088  0.86263705    -0.16200
C1061       C  0.74204038  0.73163233  0.84085116    -0.11000
C1062       C  0.72143835  0.71197867  0.83917853     0.08300
C1063       C  0.67754344  0.72970399  0.89823981     0.09400
S1064       S  0.72350186  0.77405655  0.90882369    -0.25300
H1065       H  0.75804677  0.76487453  0.86395837     0.19600
S1066       S  0.71973650  0.68689623  0.81279278    -0.31000
H1067       H  0.68509961  0.69676424  0.85702620     0.09900
C1068       C  0.65592559  0.74760398  0.89412525     0.03100
C1069       C  0.63258209  0.74484181  0.90972494    -0.13300
C1070       C  0.63032875  0.72445754  0.92929459    -0.09000
C1071       C  0.65213995  0.70657693  0.93345861     0.06600
C1072       C  0.67558583  0.70952544  0.91799468    -0.14100
S1073       S  0.65763863  0.77323384  0.86821872    -0.31000
H1074       H  0.61583761  0.75848803  0.90651776     0.10800
S1075       S  0.65069602  0.67861127  0.95670547    -0.28100
H1076       H  0.69207976  0.69543815  0.92069669     0.08100
H1077       H  0.74772429  0.68397056  0.80964346     0.26500
H1078       H  0.63270831  0.78548783  0.87393515     0.21300
H1079       H  0.62328861  0.67280135  0.95234119     0.26600
H1080       H  0.70730498  0.76029824  0.92756593     0.15500
C1081       C  0.67419826  0.56698571  0.74744278    -0.11800
C1082       C  0.67583849  0.59162606  0.76129108     0.14700
C1083       C  0.65430680  0.59968838  0.77803241     0.01600
C1084       C  0.63117744  0.58364852  0.77962338    -0.16200
C1085       C  0.62913859  0.55919257  0.76540546    -0.11000
C1086       C  0.65110696  0.55073191  0.74922795     0.08300
C1087       C  0.69905383  0.60970838  0.75624048     0.09400
S1088       S  0.65504742  0.63037150  0.79765582    -0.25300
H1089       H  0.61462322  0.59027874  0.79226956     0.19600
S1090       S  0.65034506  0.52050466  0.72899638    -0.31000
H1091       H  0.69063747  0.56086841  0.73439803     0.09900
C1092       C  0.72428504  0.60542941  0.76852603     0.03100
C1093       C  0.74493223  0.62450539  0.76486978    -0.13300
C1094       C  0.74084304  0.64767346  0.74896698    -0.09000
C1095       C  0.71595073  0.65094703  0.73540768     0.06600
C1096       C  0.69527709  0.63221845  0.73954919    -0.14100
S1097       S  0.72961040  0.57648975  0.79002166    -0.31000
H1098       H  0.76394807  0.62191998  0.77527582     0.10800
S1099       S  0.70943618  0.67817169  0.71209146    -0.28100
H1100       H  0.67600521  0.63519843  0.72968613     0.08100
H1101       H  0.62342478  0.52372890  0.72067878     0.26500
H1102       H  0.75700184  0.58144235  0.79543639     0.21300
H1103       H  0.73591959  0.67949153  0.70200123     0.26600
H1104       H  0.68307580  0.63076064  0.80180591     0.15500
C1105       C  0.79204767  0.85365500  0.62826390    -0.11800
C1106       C  0.81230353  0.87292081  0.62412005     0.14700
C1107       C  0.83499256  0.87327484  0.64136499     0.01600
C1108       C  0.83761811  0.85335351  0.66132201    -0.16200
C1109       C  0.81795437  0.83322058  0.66451701    -0.11000
C1110       C  0.79447597  0.83406463  0.64841072     0.08300
C1111       C  0.81066091  0.88971654  0.59949700     0.09400
S1112       S  0.86180430  0.89767886  0.63810680    -0.25300
H1113       H  0.85547155  0.85309005  0.67392659     0.19600
S1114       S  0.76689698  0.81076752  0.65265110    -0.31000
H1115       H  0.77451812  0.85345820  0.61520443     0.09900
C1116       C  0.82236611  0.88072753  0.57525894     0.03100
C1117       C  0.81874448  0.89574769  0.55160758    -0.13300
C1118       C  0.80365972  0.91978137  0.55151569    -0.09000
C1119       C  0.79196784  0.92879642  0.57605727     0.06600
C1120       C  0.79565700  0.91368632  0.59972291    -0.14100
S1121       S  0.84151471  0.84970658  0.57437415    -0.31000
H1122       H  0.82786474  0.88872231  0.53304788     0.10800
S1123       S  0.77101163  0.95842258  0.57844009    -0.28100
H1124       H  0.78630224  0.92032096  0.61834260     0.08100
H1125       H  0.76935453  0.80912281  0.68084962     0.26500
H1126       H  0.84985568  0.85162760  0.54731198     0.21300
H1127       H  0.75707067  0.95329640  0.55424919     0.26600
H1128       H  0.84667143  0.91780874  0.62512129     0.15500
C1129       C  0.69300975  0.75541947  0.64437233    -0.11800
C1130       C  0.69827121  0.74193979  0.62006744     0.14700
C1131       C  0.72240734  0.72720300  0.61716697     0.01600
C1132       C  0.74123392  0.72718431  0.63806562    -0.16200
C1133       C  0.73639216  0.74108537  0.66229246    -0.11000
C1134       C  0.71176817  0.75524240  0.66549200     0.08300
C1135       C  0.67980479  0.74576471  0.59700855     0.09400
S1136       S  0.73035203  0.70809690  0.58720558    -0.25300
H1137       H  0.75978800  0.71592709  0.63545155     0.19600
S1138       S  0.70358622  0.77481760  0.69507767    -0.31000
H1139       H  0.67461103  0.76702455  0.64648168     0.09900
C1140       C  0.65393775  0.73405261  0.59629569     0.03100
C1141       C  0.63830266  0.73646852  0.57280463    -0.13300
C1142       C  0.64809574  0.75043092  0.55013020    -0.09000
C1143       C  0.67333991  0.76365081  0.55174788     0.06600
C1144       C  0.68898459  0.76084355  0.57494885    -0.14100
S1145       S  0.64152836  0.71481543  0.62465384    -0.31000
H1146       H  0.61890028  0.72652031  0.57168833     0.10800
S1147       S  0.68655406  0.78494893  0.52531904    -0.28100
H1148       H  0.70861127  0.77043622  0.57583488     0.08100
H1149       H  0.72967717  0.78521565  0.69876593     0.26500
H1150       H  0.61691143  0.70703756  0.61290397     0.21300
H1151       H  0.66130841  0.79536887  0.51761971     0.26600
H1152       H  0.70355794  0.70115738  0.58103786     0.15500
C1153       C  0.72272623  0.75985466  0.38355168    -0.11800
C1154       C  0.70084627  0.74199348  0.38264399     0.14700
C1155       C  0.69739672  0.72516938  0.35990241     0.01600
C1156       C  0.71643751  0.72598543  0.33901352    -0.16200
C1157       C  0.73899981  0.74309000  0.34042048    -0.11000
C1158       C  0.74153674  0.76090947  0.36259404     0.08300
C1159       C  0.68242703  0.74131049  0.40606570     0.09400
S1160       S  0.66945366  0.70209085  0.35633533    -0.25300
H1161       H  0.71408002  0.71251650  0.32193878     0.19600
S1162       S  0.76756921  0.78623759  0.36489628    -0.31000
H1163       H  0.72504767  0.77321939  0.40072110     0.09900
C1164       C  0.68975372  0.72766679  0.42986068     0.03100
C1165       C  0.67266173  0.72874459  0.45231756    -0.13300
C1166       C  0.64854093  0.74366443  0.45178091    -0.09000
C1167       C  0.64139976  0.75751979  0.42782755     0.06600
C1168       C  0.65817481  0.75578315  0.40512188    -0.14100
S1169       S  0.72106558  0.70909535  0.43167222    -0.31000
H1170       H  0.67830398  0.71815207  0.47057474     0.10800
S1171       S  0.61256725  0.77949787  0.42553222    -0.28100
H1172       H  0.65287043  0.76669466  0.38692438     0.08100
H1173       H  0.76822185  0.79179436  0.33706568     0.26500
H1174       H  0.71825126  0.70024302  0.45849990     0.21300
H1175       H  0.61661887  0.79134799  0.45102785     0.26600
H1176       H  0.66391975  0.69860159  0.38390651     0.15500
C1177       C  0.80289424  0.87388255  0.35687550    -0.11800
C1178       C  0.81719623  0.87014969  0.38101123     0.14700
C1179       C  0.83502358  0.84804652  0.38327700     0.01600
C1180       C  0.83692555  0.82937124  0.36220223    -0.16200
C1181       C  0.82198424  0.83247220  0.33833070    -0.11000
C1182       C  0.80502430  0.85535090  0.33558025     0.08300
C1183       C  0.81082416  0.88743909  0.40462766     0.09400
S1184       S  0.85577770  0.84242571  0.41265507    -0.25300
H1185       H  0.85036311  0.81226665  0.36443589     0.19600
S1186       S  0.78405299  0.86109467  0.30642520    -0.31000
H1187       H  0.78898876  0.89066259  0.35511964     0.09900
C1188       C  0.81784369  0.91497375  0.40571632     0.03100
C1189       C  0.81284062  0.92971608  0.42942867    -0.13300
C1190       C  0.80083068  0.91756190  0.45215944    -0.09000
C1191       C  0.79244945  0.89024336  0.45023344     0.06600
C1192       C  0.79777973  0.87558115  0.42672843    -0.14100
S1193       S  0.83474271  0.93092807  0.37766065    -0.31000
H1194       H  0.81941272  0.95051037  0.43061103     0.10800
S1195       S  0.77439695  0.87278584  0.47656720    -0.28100
H1196       H  0.79174992  0.85457071  0.42563629     0.08100
H1197       H  0.77579012  0.83402597  0.30419152     0.26500
H1198       H  0.83313940  0.95750155  0.38755326     0.21300
H1199       H  0.75843696  0.89518650  0.48358439     0.26600
H1200       H  0.85758811  0.86964243  0.42050636     0.15500
C1201       C  0.67302182  0.70592754  0.08394861    -0.11800
C1202       C  0.67349422  0.72438396  0.10541211     0.14700
C1203       C  0.65108814  0.74129561  0.10994118     0.01600
C1204       C  0.62842701  0.73884155  0.09349614    -0.16200
C1205       C  0.62764438  0.72020846  0.07217607    -0.11000
C1206       C  0.65021851  0.70346062  0.06741865     0.08300
C1207       C  0.69670296  0.72452128  0.12398532     0.09400
S1208       S  0.64981198  0.76589431  0.13680406    -0.25300
H1209       H  0.61124059  0.75181785  0.09727182     0.19600
S1210       S  0.65055909  0.67749646  0.04192714    -0.31000
H1211       H  0.69013080  0.69272273  0.08069418     0.09900
C1212       C  0.69514014  0.71179606  0.14932079     0.03100
C1213       C  0.71635729  0.71481567  0.16769055    -0.13300
C1214       C  0.73885591  0.73095714  0.16155324    -0.09000
C1215       C  0.74021346  0.74377678  0.13602055     0.06600
C1216       C  0.71945928  0.73984326  0.11731791    -0.14100
S1217       S  0.66587207  0.69211459  0.15844036    -0.31000
H1218       H  0.71531520  0.70468330  0.18702293     0.10800
S1219       S  0.76645784  0.76721926  0.12683528    -0.28100
H1220       H  0.72025790  0.75011999  0.09802209     0.08100
H1221       H  0.62314916  0.67068708  0.04448206     0.26500
H1222       H  0.67192631  0.69022451  0.18609538     0.21300
H1223       H  0.76800169  0.77917513  0.15249790     0.26600
H1224       H  0.67752674  0.77165044  0.13740084     0.15500
C1225       C  0.72505408  0.60399579  0.26904935    -0.11800
C1226       C  0.70208861  0.60772112  0.25296948     0.14700
C1227       C  0.70054774  0.63033138  0.23576550     0.01600
C1228       C  0.72114249  0.64949559  0.23606518    -0.16200
C1229       C  0.74380763  0.64638630  0.25271862    -0.11000
C1230       C  0.74592876  0.62308905  0.26917472     0.08300
C1231       C  0.67855167  0.58981423  0.25666588     0.09400
S1232       S  0.67251764  0.63602969  0.21330584    -0.25300
H1233       H  0.71950708  0.66698284  0.22301876     0.19600
S1234       S  0.77364861  0.61739220  0.29205083    -0.31000
H1235       H  0.72614981  0.58673651  0.28244695     0.09900
C1236       C  0.67760941  0.56360037  0.24575409     0.03100
C1237       C  0.65343713  0.54888021  0.24709964    -0.13300
C1238       C  0.63031932  0.55981406  0.25943437    -0.09000
C1239       C  0.63217046  0.58534405  0.27212373     0.06600
C1240       C  0.65602012  0.60017022  0.27016829    -0.14100
S1241       S  0.70664607  0.54959177  0.22883452    -0.31000
H1242       H  0.65224071  0.52926010  0.23755768     0.10800
S1243       S  0.60525397  0.59990936  0.29177235    -0.28100
H1244       H  0.65702844  0.62010728  0.27913687     0.08100
H1245       H  0.77600615  0.64451678  0.30012480     0.26500
H1246       H  0.69526392  0.52420143  0.22317040     0.21300
H1247       H  0.59632704  0.57512941  0.30241907     0.26600
H1248       H  0.66675947  0.60862881  0.20867890     0.15500
C1249       C  0.95828105  0.63051677  0.27725963    -0.11800
C1250       C  0.96138782  0.61313638  0.25506579     0.14700
C1251       C  0.94623114  0.61812123  0.23139634     0.01600
C1252       C  0.92686872  0.63863073  0.23126200    -0.16200
C1253       C  0.92313283  0.65535349  0.25375321    -0.11000
C1254       C  0.93966042  0.65180242  0.27673590     0.08300
C1255       C  0.97750007  0.58800209  0.25833681     0.09400
S1256       S  0.95064939  0.59900078  0.20072555    -0.25300
H1257       H  0.91468910  0.64170528  0.21335402     0.19600
S1258       S  0.93742726  0.67286191  0.30643011    -0.31000
H1259       H  0.96967390  0.62682505  0.29554786     0.09900
C1260       C  0.00520250  0.58819240  0.26469833     0.03100
C1261       C  0.01892515  0.56356315  0.26800467    -0.13300
C1262       C  0.00568740  0.53858029  0.26473544    -0.09000
C1263       C  0.97792689  0.53864292  0.25774142     0.06600
C1264       C  0.96425025  0.56322704  0.25523537    -0.14100
S1265       S  0.02337613  0.61967915  0.26749759    -0.31000
H1266       H  0.04014272  0.56381526  0.27308156     0.10800
S1267       S  0.95963828  0.50810441  0.24960183    -0.28100
H1268       H  0.94301369  0.56325116  0.25019084     0.08100
H1269       H  0.91041724  0.68073092  0.30338222     0.26500
H1270       H  0.04832273  0.60851445  0.27507118     0.21300
H1271       H  0.93354903  0.51903514  0.25157234     0.26600
H1272       H  0.97790803  0.59263573  0.20525951     0.15500
C1273       C  0.95612663  0.35787224  0.24548980    -0.11800
C1274       C  0.95918083  0.36793768  0.27188078     0.14700
C1275       C  0.94367511  0.35631058  0.29285497     0.01600
C1276       C  0.92448758  0.33652567  0.28670876    -0.16200
C1277       C  0.92145384  0.32665656  0.26035315    -0.11000
C1278       C  0.93818664  0.33679692  0.23963227     0.08300
C1279       C  0.97697843  0.39183370  0.27635214     0.09400
S1280       S  0.94780256  0.36523513  0.32791164    -0.25300
H1281       H  0.91207759  0.32838072  0.30277564     0.19600
S1282       S  0.93785398  0.32434964  0.20531078    -0.31000
H1283       H  0.96771060  0.36668272  0.22917318     0.09900
C1284       C  0.00421217  0.39216779  0.26802571     0.03100
C1285       C  0.01907128  0.41627033  0.26965639    -0.13300
C1286       C  0.00763893  0.44006911  0.28013708    -0.09000
C1287       C  0.98125475  0.43876333  0.29106562     0.06600
C1288       C  0.96600244  0.41517614  0.28807777    -0.14100
S1289       S  0.02031062  0.36187310  0.25564240    -0.31000
H1290       H  0.03947232  0.41669913  0.26194368     0.10800
S1291       S  0.96611700  0.46586461  0.31006553    -0.28100
H1292       H  0.94530129  0.41502740  0.29505629     0.08100
H1293       H  0.91822143  0.30415315  0.20783807     0.26500
H1294       H  0.04492754  0.37384494  0.24820349     0.21300
H1295       H  0.99046836  0.47439003  0.32189580     0.26600
H1296       H  0.97530120  0.37186669  0.32589321     0.15500
C1297       C  0.85304313  0.58711486  0.42318702    -0.11800
C1298       C  0.83902854  0.58711464  0.39860365     0.14700
C1299       C  0.82629266  0.56317128  0.38988506     0.01600
C1300       C  0.82874545  0.53958687  0.40521363    -0.16200
C1301       C  0.84309718  0.53928048  0.42965005    -0.11000
C1302       C  0.85528910  0.56352290  0.43874072     0.08300
C1303       C  0.84034689  0.61116620  0.38080979     0.09400
S1304       S  0.80677459  0.56141354  0.35919194    -0.25300
H1305       H  0.81899339  0.52133574  0.39812604     0.19600
S1306       S  0.87546479  0.56536720  0.46893162    -0.31000
H1307       H  0.86316774  0.60535184  0.42976915     0.09900
C1308       C  0.82478115  0.63447205  0.38556606     0.03100
C1309       C  0.82415833  0.65506378  0.36602814    -0.13300
C1310       C  0.83885295  0.65278521  0.34184403    -0.09000
C1311       C  0.85590951  0.63016757  0.33811632     0.06600
C1312       C  0.85629580  0.60962950  0.35754689    -0.14100
S1313       S  0.80467638  0.63731981  0.41579590    -0.31000
H1314       H  0.81140333  0.67251861  0.36913058     0.10800
S1315       S  0.87790023  0.62742500  0.30914570    -0.28100
H1316       H  0.86865982  0.59188971  0.35443946     0.08100
H1317       H  0.88778057  0.54005739  0.46521594     0.26500
H1318       H  0.79410313  0.66309797  0.41033609     0.21300
H1319       H  0.88883243  0.60195826  0.31524613     0.26600
H1320       H  0.79785277  0.58835174  0.35964221     0.15500
C1321       C  0.86574982  0.41389123  0.39063440    -0.11800
C1322       C  0.84970627  0.39208044  0.39881780     0.14700
C1323       C  0.83530527  0.39379727  0.42331123     0.01600
C1324       C  0.83615370  0.41772084  0.43833818    -0.16200
C1325       C  0.85121687  0.44011423  0.42957602    -0.11000
C1326       C  0.86699360  0.43766429  0.40586840     0.08300
C1327       C  0.84561622  0.36954532  0.37963175     0.09400
S1328       S  0.81405008  0.36689971  0.43549430    -0.25300
H1329       H  0.82409720  0.41916675  0.45652198     0.19600
S1330       S  0.88939338  0.46381111  0.39409249    -0.31000
H1331       H  0.87696564  0.41255911  0.37190352     0.09900
C1332       C  0.82531934  0.37114525  0.35991241     0.03100
C1333       C  0.82261279  0.35027555  0.34107086    -0.13300
C1334       C  0.83932859  0.32748817  0.34153827    -0.09000
C1335       C  0.86006567  0.32615284  0.36114456     0.06600
C1336       C  0.86289574  0.34712292  0.38003624    -0.14100
S1337       S  0.80314643  0.40008538  0.35850572    -0.31000
H1338       H  0.80751306  0.35174566  0.32573305     0.10800
S1339       S  0.88458707  0.29932330  0.36207286    -0.28100
H1340       H  0.87894117  0.34621736  0.39484219     0.08100
H1341       H  0.89715665  0.47231520  0.42004974     0.26500
H1342       H  0.78766834  0.39147544  0.33639304     0.21300
H1343       H  0.88571814  0.29560892  0.33399088     0.26600
H1344       H  0.82920813  0.34566939  0.42444089     0.15500
C1345       C  0.46375469  0.63698884  0.77311695    -0.11800
C1346       C  0.46129431  0.61256195  0.75910197     0.14700
C1347       C  0.43700676  0.60674704  0.74541859     0.01600
C1348       C  0.41604487  0.62579044  0.74549712    -0.16200
C1349       C  0.41879415  0.65072043  0.75883452    -0.11000
C1350       C  0.44278365  0.65582298  0.77355291     0.08300
C1351       C  0.48453223  0.59375682  0.75958667     0.09400
S1352       S  0.43165437  0.57568544  0.72720147    -0.25300
H1353       H  0.39777761  0.62143087  0.73432204     0.19600
S1354       S  0.44751821  0.68518805  0.79454788    -0.31000
H1355       H  0.48211646  0.64122081  0.78420716     0.09900
C1356       C  0.50799813  0.59933940  0.74461069     0.03100
C1357       C  0.53060961  0.58265696  0.74746689    -0.13300
C1358       C  0.53055487  0.56054435  0.76527503    -0.09000
C1359       C  0.50683126  0.55488299  0.78015402     0.06600
C1360       C  0.48403195  0.57134055  0.77688624    -0.14100
S1361       S  0.50912305  0.62772227  0.72172632    -0.31000
H1362       H  0.54852942  0.58691957  0.73573922     0.10800
S1363       S  0.50482877  0.52831444  0.80491569    -0.28100
H1364       H  0.46610828  0.56731317  0.78872909     0.08100
H1365       H  0.42080611  0.68544112  0.80409842     0.26500
H1366       H  0.53667922  0.62580321  0.71528934     0.21300
H1367       H  0.53100092  0.53238953  0.81506076     0.26600
H1368       H  0.45876161  0.57114130  0.72034761     0.15500
C1369       C  0.46309253  0.75105916  0.85637384    -0.11800
C1370       C  0.46121094  0.73298363  0.87802047     0.14700
C1371       C  0.43679514  0.71911749  0.88266894     0.01600
C1372       C  0.41514357  0.72283088  0.86490362    -0.16200
C1373       C  0.41751294  0.73986894  0.84234879    -0.11000
C1374       C  0.44147030  0.75496296  0.83877306     0.08300
C1375       C  0.48516123  0.72931958  0.89532503     0.09400
S1376       S  0.43235734  0.69587958  0.91033356    -0.25300
H1377       H  0.39681493  0.71131924  0.86797400     0.19600
S1378       S  0.44554041  0.78004518  0.81265548    -0.31000
H1379       H  0.48159137  0.76228795  0.85324423     0.09900
C1380       C  0.50747036  0.71425345  0.88631759     0.03100
C1381       C  0.53056079  0.71264562  0.90252385    -0.13300
C1382       C  0.53187974  0.72588686  0.92759891    -0.09000
C1383       C  0.50940592  0.74114261  0.93640561     0.06600
C1384       C  0.48619587  0.74231235  0.92039258    -0.14100
S1385       S  0.50646125  0.69700586  0.85419508    -0.31000
H1386       H  0.54770811  0.70103391  0.89559737     0.10800
S1387       S  0.50968840  0.76128652  0.96666452    -0.28100
H1388       H  0.46915528  0.75428426  0.92702836     0.08100
H1389       H  0.41842810  0.78836353  0.81260874     0.26500
H1390       H  0.53002744  0.68168921  0.85801011     0.21300
H1391       H  0.53623147  0.77066627  0.96308436     0.26600
H1392       H  0.45910091  0.68652520  0.91083820     0.15500
C1393       C  0.15524438  0.58517202  0.74374144    -0.11800
C1394       C  0.18141363  0.58517669  0.73294160     0.14700
C1395       C  0.19032438  0.56244489  0.71828379     0.01600
C1396       C  0.17360837  0.53982964  0.71596974    -0.16200
C1397       C  0.14758456  0.53941319  0.72722691    -0.11000
C1398       C  0.13813748  0.56278872  0.74071302     0.08300
C1399       C  0.19980644  0.60811320  0.73882911     0.09400
S1400       S  0.22298712  0.56094213  0.70232506    -0.25300
H1401       H  0.18108460  0.52229717  0.70523552     0.19600
S1402       S  0.10548181  0.56447776  0.75644876    -0.31000
H1403       H  0.14831543  0.60252470  0.75510693     0.09900
C1404       C  0.19616233  0.63377484  0.72709645     0.03100
C1405       C  0.21529980  0.65417693  0.73184645    -0.13300
C1406       C  0.23812283  0.64947141  0.74806381    -0.09000
C1407       C  0.24089545  0.62404864  0.76084549     0.06600
C1408       C  0.22196520  0.60368872  0.75584161    -0.14100
S1409       S  0.16801981  0.64006537  0.70483984    -0.31000
H1410       H  0.21300224  0.67358087  0.72206099     0.10800
S1411       S  0.26761659  0.61645073  0.78434060    -0.28100
H1412       H  0.22452236  0.58412095  0.76529059     0.08100
H1413       H  0.09170012  0.56292445  0.73166935     0.26500
H1414       H  0.17457876  0.66697431  0.69856205     0.21300
H1415       H  0.26823795  0.64238478  0.79592985     0.26600
H1416       H  0.22472342  0.58867265  0.69649575     0.15500
C1417       C  0.32390864  0.63108644  0.61818322    -0.11800
C1418       C  0.33874731  0.60797903  0.62477309     0.14700
C1419       C  0.35209503  0.60653114  0.64986559     0.01600
C1420       C  0.34900670  0.62752699  0.66841245    -0.16200
C1421       C  0.33326951  0.65035052  0.66239487    -0.11000
C1422       C  0.32090964  0.65220315  0.63669140     0.08300
C1423       C  0.33714632  0.58440742  0.60669396     0.09400
S1424       S  0.37268915  0.57816493  0.65981357    -0.25300
H1425       H  0.35914140  0.62603970  0.68773734     0.19600
S1426       S  0.29960988  0.67990084  0.62680337    -0.31000
H1427       H  0.31350727  0.63207875  0.59897108     0.09900
C1428       C  0.31931897  0.56308657  0.61247675     0.03100
C1429       C  0.31949650  0.54010388  0.59614581    -0.13300
C1430       C  0.33706083  0.53794510  0.57402412    -0.09000
C1431       C  0.35451920  0.55968550  0.56789854     0.06600
C1432       C  0.35409409  0.58286204  0.58410626    -0.14100
S1433       S  0.29636079  0.56511577  0.64074736    -0.31000
H1434       H  0.30584992  0.52367042  0.60065257     0.10800
S1435       S  0.37887285  0.55848457  0.54093082    -0.28100
H1436       H  0.36779737  0.59934154  0.57976514     0.08100
H1437       H  0.28622371  0.68146675  0.65179897     0.26500
H1438       H  0.28208185  0.54119952  0.63523949     0.21300
H1439       H  0.38545326  0.53111031  0.54462263     0.26600
H1440       H  0.37909403  0.56911838  0.63372927     0.15500
C1441       C  0.33041460  0.91243780  0.59992939    -0.11800
C1442       C  0.34062783  0.88609013  0.59839226     0.14700
C1443       C  0.35076881  0.87650794  0.57362190     0.01600
C1444       C  0.34903742  0.89273526  0.55066140    -0.16200
C1445       C  0.33776499  0.91877049  0.55167880    -0.11000
C1446       C  0.32874591  0.92884322  0.57691535     0.08300
C1447       C  0.33715203  0.86776802  0.62171372     0.09400
S1448       S  0.36569211  0.84350117  0.56992627    -0.25300
H1449       H  0.35660378  0.88481841  0.53173207     0.19600
S1450       S  0.31306672  0.96139287  0.58097605    -0.31000
H1451       H  0.32239097  0.91974572  0.61891973     0.09900
C1452       C  0.35277568  0.87013164  0.64533425     0.03100
C1453       C  0.34914272  0.85142371  0.66633054    -0.13300
C1454       C  0.33028906  0.83035731  0.66399939    -0.09000
C1455       C  0.31397051  0.82876164  0.64067990     0.06600
C1456       C  0.31774929  0.84728626  0.61978521    -0.14100
S1457       S  0.37848112  0.89577952  0.64801403    -0.31000
H1458       H  0.36179682  0.85250015  0.68411122     0.10800
S1459       S  0.28764741  0.80393288  0.63653802    -0.28100
H1460       H  0.30541653  0.84577252  0.60179035     0.08100
H1461       H  0.29649694  0.95867969  0.55809407     0.26500
H1462       H  0.38366282  0.89209054  0.67568502     0.21300
H1463       H  0.28042871  0.80296484  0.66398390     0.26600
H1464       H  0.37551012  0.84167464  0.59648481     0.15500
C1465       C  0.43352311  0.73078590  0.61762973    -0.11800
C1466       C  0.45613007  0.74733362  0.62132790     0.14700
C1467       C  0.45968355  0.76087857  0.64616509     0.01600
C1468       C  0.44047775  0.75755436  0.66664021    -0.16200
C1469       C  0.41743135  0.74149680  0.66271835    -0.11000
C1470       C  0.41432679  0.72750675  0.63799625     0.08300
C1471       C  0.47469334  0.75066092  0.59823462     0.09400
S1472       S  0.48770414  0.78313461  0.65297749    -0.25300
H1473       H  0.44304693  0.76844802  0.68543893     0.19600
S1474       S  0.38681566  0.70462469  0.63128901    -0.31000
H1475       H  0.43086208  0.72025188  0.59863583     0.09900
C1476       C  0.49923170  0.73647214  0.59643341     0.03100
C1477       C  0.51477204  0.73854386  0.57280003    -0.13300
C1478       C  0.50607988  0.75436227  0.55087829    -0.09000
C1479       C  0.48205255  0.76955508  0.55347091     0.06600
C1480       C  0.46650594  0.76718523  0.57685005    -0.14100
S1481       S  0.51014550  0.71494713  0.62373540    -0.31000
H1482       H  0.53321179  0.72700063  0.57098843     0.10800
S1483       S  0.47035544  0.79286961  0.52809825    -0.28100
H1484       H  0.44777515  0.77834232  0.57843031     0.08100
H1485       H  0.38588573  0.69407965  0.65763954     0.26500
H1486       H  0.53197539  0.70310997  0.61001185     0.21300
H1487       H  0.49627501  0.80118679  0.52009353     0.26600
H1488       H  0.49478882  0.78884481  0.62615658     0.15500
C1489       C  0.46123410  0.34626575  0.74586972    -0.11800
C1490       C  0.45913936  0.36538902  0.76664310     0.14700
C1491       C  0.43527445  0.36670663  0.78206187     0.01600
C1492       C  0.41404435  0.34895443  0.77636227    -0.16200
C1493       C  0.41654094  0.32914501  0.75622455    -0.11000
C1494       C  0.44032001  0.32813161  0.74053293     0.08300
C1495       C  0.48233798  0.38355648  0.77145581     0.09400
S1496       S  0.43136027  0.38951789  0.81011292    -0.25300
H1497       H  0.39604312  0.34961826  0.78874674     0.19600
S1498       S  0.44516905  0.30441028  0.71329854    -0.31000
H1499       H  0.47943962  0.34539993  0.73379700     0.09900
C1500       C  0.50680010  0.37342133  0.78156349     0.03100
C1501       C  0.52941548  0.39027844  0.78259361    -0.13300
C1502       C  0.52833290  0.41728971  0.77372605    -0.09000
C1503       C  0.50316430  0.42773996  0.76488580     0.06600
C1504       C  0.48052288  0.41079370  0.76403979    -0.14100
S1505       S  0.50922673  0.33889806  0.79314089    -0.31000
H1506       H  0.54823402  0.38211119  0.79002138     0.10800
S1507       S  0.49859600  0.46172470  0.75279648    -0.28100
H1508       H  0.46159129  0.41857354  0.75638151     0.08100
H1509       H  0.41788201  0.30318775  0.70566716     0.26500
H1510       H  0.53561583  0.34057836  0.80338407     0.21300
H1511       H  0.52028511  0.46023874  0.73455597     0.26600
H1512       H  0.45853297  0.38899588  0.81816559     0.15500
C1513       C  0.43558930  0.23297681  0.88688245    -0.11800
C1514       C  0.45967394  0.24584622  0.87958243     0.14700
C1515       C  0.46161192  0.25837383  0.85410579     0.01600
C1516       C  0.44014561  0.25644154  0.83596190    -0.16200
C1517       C  0.41624631  0.24267145  0.84270431    -0.11000
C1518       C  0.41396450  0.23119093  0.86878562     0.08300
C1519       C  0.48357961  0.24283097  0.89720180     0.09400
S1520       S  0.49108886  0.27692031  0.84353014    -0.25300
H1521       H  0.44214435  0.26596338  0.81636570     0.19600
S1522       S  0.38507608  0.21215841  0.87954409    -0.31000
H1523       H  0.43414602  0.22305025  0.90632584     0.09900
C1524       C  0.48542662  0.25539127  0.92264383     0.03100
C1525       C  0.50906583  0.25236847  0.93795061    -0.13300
C1526       C  0.53081111  0.23689340  0.92836410    -0.09000
C1527       C  0.52823118  0.22330050  0.90336599     0.06600
C1528       C  0.50487860  0.22669787  0.88802514    -0.14100
S1529       S  0.45830975  0.27629585  0.93502046    -0.31000
H1530       H  0.51096146  0.26279435  0.95706022     0.10800
S1531       S  0.55339606  0.20053457  0.89023671    -0.28100
H1532       H  0.50314548  0.21645573  0.86876669     0.08100
H1533       H  0.38328991  0.19757028  0.85523715     0.26500
H1534       H  0.46899248  0.28052264  0.96098230     0.21300
H1535       H  0.56080809  0.19007631  0.91557199     0.26600
H1536       H  0.49860937  0.28546777  0.86953204     0.15500
C1537       C  0.31171923  0.41466558  0.61177370    -0.11800
C1538       C  0.32731497  0.39242651  0.60414529     0.14700
C1539       C  0.34200683  0.39311485  0.57980254     0.01600
C1540       C  0.34248426  0.41693952  0.56466275    -0.16200
C1541       C  0.32796549  0.43979003  0.57304390    -0.11000
C1542       C  0.31144651  0.43811565  0.59625193     0.08300
C1543       C  0.32877858  0.36955113  0.62295480     0.09400
S1544       S  0.36099143  0.36460072  0.56751296    -0.25300
H1545       H  0.35476679  0.41784437  0.54659497     0.19600
S1546       S  0.28900351  0.46473363  0.60680691    -0.31000
H1547       H  0.29984020  0.41379271  0.63012564     0.09900
C1548       C  0.35090757  0.36638334  0.64047389     0.03100
C1549       C  0.35034554  0.34584211  0.65986767    -0.13300
C1550       C  0.32806652  0.32858222  0.66197186    -0.09000
C1551       C  0.30586740  0.33194995  0.64442914     0.06600
C1552       C  0.30655812  0.35230569  0.62500860    -0.14100
S1553       S  0.37938924  0.38903781  0.63867810    -0.31000
H1554       H  0.36721921  0.34318349  0.67348268     0.10800
S1555       S  0.27552639  0.31208082  0.64645853    -0.28100
H1556       H  0.28936567  0.35521971  0.61182312     0.08100
H1557       H  0.28266433  0.47336154  0.58050500     0.26500
H1558       H  0.39411412  0.37755530  0.66004697     0.21300
H1559       H  0.27806993  0.30509025  0.67369025     0.26600
H1560       H  0.34487586  0.34461290  0.57958393     0.15500
C1561       C  0.15630436  0.39445937  0.74596858    -0.11800
C1562       C  0.18311674  0.39526188  0.73705114     0.14700
C1563       C  0.19278764  0.41867701  0.72405218     0.01600
C1564       C  0.17574324  0.44090289  0.72088461    -0.16200
C1565       C  0.14888470  0.44048566  0.73002629    -0.11000
C1566       C  0.13907948  0.41666115  0.74252733     0.08300
C1567       C  0.20070022  0.37155777  0.74162148     0.09400
S1568       S  0.22688201  0.42187867  0.71166902    -0.25300
H1569       H  0.18367546  0.45880235  0.71112609     0.19600
S1570       S  0.10560381  0.41388680  0.75624835    -0.31000
H1571       H  0.14885051  0.37649658  0.75599021     0.09900
C1572       C  0.22056317  0.37153699  0.76193301     0.03100
C1573       C  0.23872057  0.34989089  0.76357927    -0.13300
C1574       C  0.23737051  0.32813807  0.74541182    -0.09000
C1575       C  0.21696808  0.32800630  0.72538081     0.06600
C1576       C  0.19873062  0.34954095  0.72398888    -0.14100
S1577       S  0.22287517  0.39917661  0.78560260    -0.31000
H1578       H  0.25417414  0.34991823  0.77901782     0.10800
S1579       S  0.21372947  0.30209406  0.69994870    -0.28100
H1580       H  0.18355753  0.34972574  0.70825115     0.08100
H1581       H  0.09338757  0.41480732  0.73063202     0.26500
H1582       H  0.24500362  0.38919759  0.80029065     0.21300
H1583       H  0.24090771  0.29455860  0.69916450     0.26600
H1584       H  0.23112654  0.39442301  0.70603789     0.15500
C1585       C  0.34951459  0.07109753  0.59493275    -0.11800
C1586       C  0.33377620  0.09458596  0.59487181     0.14700
C1587       C  0.31913246  0.10161057  0.57149329     0.01600
C1588       C  0.32100863  0.08529184  0.54854990    -0.16200
C1589       C  0.33695193  0.06184577  0.54839216    -0.11000
C1590       C  0.35147266  0.05481155  0.57191999     0.08300
C1591       C  0.33471326  0.11250556  0.61863833     0.09400
S1592       S  0.29822710  0.13138780  0.56933094    -0.25300
H1593       H  0.30976607  0.09089770  0.53065059     0.19600
S1594       S  0.37430139  0.02655919  0.57331708    -0.31000
H1595       H  0.36110229  0.06595788  0.61274936     0.09900
C1596       C  0.31774101  0.10841398  0.64104295     0.03100
C1597       C  0.31799227  0.12716142  0.66226139    -0.13300
C1598       C  0.33501952  0.14980034  0.66145264    -0.09000
C1599       C  0.35326545  0.15280496  0.63969094     0.06600
C1600       C  0.35255966  0.13440005  0.61834749    -0.14100
S1601       S  0.29493120  0.08003730  0.64191910    -0.31000
H1602       H  0.30424386  0.12472560  0.67906402     0.10800
S1603       S  0.37840398  0.17914216  0.63823034    -0.28100
H1604       H  0.36605136  0.13711059  0.60135031     0.08100
H1605       H  0.38443282  0.03020903  0.54703883     0.26500
H1606       H  0.28305683  0.08620258  0.66693172     0.21300
H1607       H  0.38272424  0.18048299  0.66623762     0.26600
H1608       H  0.29248407  0.13382316  0.59696989     0.15500
C1609       C  0.32905330  0.06844341  0.40335256    -0.11800
C1610       C  0.34263081  0.09325161  0.40370983     0.14700
C1611       C  0.35735113  0.10082096  0.42682324     0.01600
C1612       C  0.35691717  0.08419708  0.44959212    -0.16200
C1613       C  0.34227584  0.05986947  0.44988025    -0.11000
C1614       C  0.32854363  0.05176048  0.42616134     0.08300
C1615       C  0.33826460  0.11233193  0.38123428     0.09400
S1616       S  0.37636653  0.13184092  0.42873297    -0.25300
H1617       H  0.36788649  0.09053982  0.46741451     0.19600
S1618       S  0.30807204  0.02177751  0.42425136    -0.31000
H1619       H  0.31752848  0.06275627  0.38565920     0.09900
C1620       C  0.35027759  0.10865019  0.35577961     0.03100
C1621       C  0.34604807  0.12795370  0.33549303    -0.13300
C1622       C  0.32972602  0.15071143  0.34009641    -0.09000
C1623       C  0.31666785  0.15347953  0.36535274     0.06600
C1624       C  0.32142012  0.13455577  0.38567055    -0.14100
S1625       S  0.37204446  0.08014644  0.34957500    -0.31000
H1626       H  0.35625163  0.12577538  0.31629604     0.10800
S1627       S  0.29297518  0.17998762  0.37279423    -0.28100
H1628       H  0.31165648  0.13697841  0.40509854     0.08100
H1629       H  0.29519084  0.02631192  0.44914706     0.26500
H1630       H  0.37389208  0.08367940  0.32146431     0.21300
H1631       H  0.28199184  0.18104606  0.34662788     0.26600
H1632       H  0.38214015  0.13365418  0.40100542     0.15500
C1633       C  0.46334967  0.22579559  0.64573971    -0.11800
C1634       C  0.45897891  0.24087344  0.62218197     0.14700
C1635       C  0.43568449  0.25712260  0.62022148     0.01600
C1636       C  0.41669317  0.25690591  0.64108418    -0.16200
C1637       C  0.42048409  0.24115616  0.66433529    -0.11000
C1638       C  0.44437691  0.22563311  0.66674180     0.08300
C1639       C  0.47715661  0.23697565  0.59871898     0.09400
S1640       S  0.42875099  0.27818991  0.59134651    -0.25300
H1641       H  0.39872654  0.26919891  0.63911870     0.19600
S1642       S  0.45099298  0.20365867  0.69500124    -0.31000
H1643       H  0.48106861  0.21308913  0.64721974     0.09900
C1644       C  0.50294555  0.24883687  0.59737211     0.03100
C1645       C  0.51823165  0.24634886  0.57355231    -0.13300
C1646       C  0.50823406  0.23212695  0.55108011    -0.09000
C1647       C  0.48309205  0.21876996  0.55337332     0.06600
C1648       C  0.46774579  0.22171987  0.57686498    -0.14100
S1649       S  0.51573158  0.26820580  0.62545609    -0.31000
H1650       H  0.53760118  0.25631108  0.57207721     0.10800
S1651       S  0.46978723  0.19686488  0.52754272    -0.28100
H1652       H  0.44820051  0.21201043  0.57816333     0.08100
H1653       H  0.42449306  0.19365417  0.69654825     0.26500
H1654       H  0.53951968  0.27705606  0.61278048     0.21300
H1655       H  0.49504291  0.18666760  0.51958686     0.26600
H1656       H  0.45577645  0.28267942  0.58409099     0.15500
C1657       C  0.49821778  0.22331102  0.40614291    -0.11800
C1658       C  0.47606610  0.24085035  0.40522639     0.14700
C1659       C  0.47093649  0.25798930  0.42738678     0.01600
C1660       C  0.48695291  0.25601966  0.45055710    -0.16200
C1661       C  0.50863246  0.23782792  0.45195754    -0.11000
C1662       C  0.51449185  0.22156041  0.42919488     0.08300
C1663       C  0.45684453  0.23861180  0.38246198     0.09400
S1664       S  0.44408015  0.28256345  0.42741953    -0.25300
H1665       H  0.48247953  0.26889272  0.46766705     0.19600
S1666       S  0.54104446  0.19676291  0.42885193    -0.31000
H1667       H  0.50209650  0.20999126  0.38922839     0.09900
C1668       C  0.46286095  0.24858923  0.35655006     0.03100
C1669       C  0.44334387  0.24683553  0.33609716    -0.13300
C1670       C  0.41782990  0.23536394  0.34100771    -0.09000
C1671       C  0.41273508  0.22370640  0.36662800     0.06600
C1672       C  0.43199734  0.22598229  0.38709895    -0.14100
S1673       S  0.49493377  0.26448380  0.34984453    -0.31000
H1674       H  0.44780036  0.25499347  0.31635606     0.10800
S1675       S  0.38291112  0.20426496  0.37416415    -0.28100
H1676       H  0.42775715  0.21747095  0.40680375     0.08100
H1677       H  0.53650903  0.18780311  0.45540505     0.26500
H1678       H  0.48956876  0.27175010  0.32292712     0.21300
H1679       H  0.38185889  0.19174305  0.34868404     0.26600
H1680       H  0.44303752  0.28629123  0.39930876     0.15500
C1681       C  0.50692713  0.60082337  0.23286317    -0.11800
C1682       C  0.48424527  0.59207722  0.24727142     0.14700
C1683       C  0.48496388  0.56700021  0.26077944     0.01600
C1684       C  0.50867336  0.55167856  0.26020372    -0.16200
C1685       C  0.53191973  0.56110023  0.24697045    -0.11000
C1686       C  0.53063782  0.58565714  0.23244036     0.08300
C1687       C  0.46105219  0.61062806  0.24909304     0.09400
S1688       S  0.45689080  0.55375008  0.27984741    -0.25300
H1689       H  0.50933936  0.53282502  0.27128200     0.19600
S1690       S  0.55822730  0.59867873  0.21262059    -0.31000
H1691       H  0.50624790  0.61992388  0.22219804     0.09900
C1692       C  0.46245958  0.63370985  0.26559388     0.03100
C1693       C  0.44101421  0.65200610  0.26572923    -0.13300
C1694       C  0.41812718  0.64783688  0.24959530    -0.09000
C1695       C  0.41679063  0.62461616  0.23296140     0.06600
C1696       C  0.43813090  0.60607954  0.23318271    -0.14100
S1697       S  0.49162257  0.63979685  0.28660444    -0.31000
H1698       H  0.44204924  0.66970733  0.27851025     0.10800
S1699       S  0.38947578  0.61841752  0.20973563    -0.28100
H1700       H  0.43731439  0.58849329  0.22019930     0.08100
H1701       H  0.56711582  0.57322354  0.20371965     0.26500
H1702       H  0.48208111  0.66348694  0.29898809     0.21300
H1703       H  0.38666359  0.64555712  0.20182360     0.26600
H1704       H  0.44417549  0.57841397  0.28554468     0.15500
C1705       C  0.48669286  0.73941008  0.08324080    -0.11800
C1706       C  0.48414195  0.72069784  0.10434604     0.14700
C1707       C  0.50380384  0.70035719  0.10750305     0.01600
C1708       C  0.52649494  0.70041081  0.09085049    -0.16200
C1709       C  0.52968898  0.71978038  0.07043884    -0.11000
C1710       C  0.50938570  0.73936640  0.06643412     0.08300
C1711       C  0.46209047  0.72432008  0.12407692     0.09400
S1712       S  0.50139435  0.67415286  0.13270828    -0.25300
H1713       H  0.54189439  0.68518667  0.09388600     0.19600
S1714       S  0.51221711  0.76611162  0.04193933    -0.31000
H1715       H  0.47162130  0.75505954  0.08080620     0.09900
C1716       C  0.46742841  0.73246422  0.15074432     0.03100
C1717       C  0.44609552  0.73501890  0.16900521    -0.13300
C1718       C  0.41917220  0.73050642  0.16116419    -0.09000
C1719       C  0.41389271  0.72282502  0.13396477     0.06600
C1720       C  0.43548776  0.71982984  0.11589738    -0.14100
S1721       S  0.50135460  0.74060956  0.16135400    -0.31000
H1722       H  0.45054586  0.74095272  0.18952228     0.10800
S1723       S  0.38024982  0.71579608  0.12165407    -0.28100
H1724       H  0.43179471  0.71362855  0.09527429     0.08100
H1725       H  0.54012943  0.76990811  0.04512124     0.26500
H1726       H  0.49518758  0.74714526  0.18827765     0.21300
H1727       H  0.38692487  0.71185585  0.09435290     0.26600
H1728       H  0.47309333  0.67379165  0.13408578     0.15500
C1729       C  0.43656654  0.72265145  0.38273698    -0.11800
C1730       C  0.45665738  0.74249563  0.38125553     0.14700
C1731       C  0.45817864  0.75940790  0.35839219     0.01600
C1732       C  0.43876256  0.75690514  0.33810685    -0.16200
C1733       C  0.41807279  0.73765339  0.34003692    -0.11000
C1734       C  0.41745284  0.71983443  0.36225377     0.08300
C1735       C  0.47447185  0.74590132  0.40478118     0.09400
S1736       S  0.48370352  0.78504943  0.35431779    -0.25300
H1737       H  0.43944492  0.77048774  0.32096028     0.19600
S1738       S  0.39318436  0.69286823  0.36538759    -0.31000
H1739       H  0.43563145  0.70944135  0.40015557     0.09900
C1740       C  0.46919063  0.76582114  0.42433792     0.03100
C1741       C  0.48482300  0.76660700  0.44786887    -0.13300
C1742       C  0.50563919  0.74788541  0.45214118    -0.09000
C1743       C  0.51095076  0.72805217  0.43232163     0.06600
C1744       C  0.49542334  0.72740268  0.40879714    -0.14100
S1745       S  0.44193887  0.78958357  0.41970478    -0.31000
H1746       H  0.48077687  0.78176006  0.46308642     0.10800
S1747       S  0.53591484  0.70194869  0.43656902    -0.28100
H1748       H  0.49909342  0.71182800  0.39387914     0.08100
H1749       H  0.39139637  0.68745719  0.33756635     0.26500
H1750       H  0.44639392  0.80446787  0.44346028     0.21300
H1751       H  0.53111357  0.69816106  0.46429784     0.26600
H1752       H  0.50339464  0.77269653  0.37051703     0.15500
C1753       C  0.31376978  0.86991104  0.36109524    -0.11800
C1754       C  0.33008208  0.86502338  0.38370656     0.14700
C1755       C  0.34555388  0.84116123  0.38487128     0.01600
C1756       C  0.34409908  0.82259675  0.36371994    -0.16200
C1757       C  0.32771717  0.82728698  0.34107741    -0.11000
C1758       C  0.31216588  0.85119933  0.33992783     0.08300
C1759       C  0.32872767  0.88379717  0.40687895     0.09400
S1760       S  0.36733249  0.83304876  0.41288531    -0.25300
H1761       H  0.35618839  0.80439996  0.36482346     0.19600
S1762       S  0.28857582  0.85814480  0.31311265    -0.31000
H1763       H  0.30144721  0.88796039  0.36043283     0.09900
C1764       C  0.34262918  0.90858652  0.40697907     0.03100
C1765       C  0.34190649  0.92489876  0.43018373    -0.13300
C1766       C  0.32744728  0.91690075  0.45326796    -0.09000
C1767       C  0.31235157  0.89261071  0.45236652     0.06600
C1768       C  0.31352787  0.87622970  0.42943631    -0.14100
S1769       S  0.36239446  0.91867825  0.37808883    -0.31000
H1770       H  0.35349041  0.94341377  0.43071846     0.10800
S1771       S  0.29049267  0.88165217  0.47931812    -0.28100
H1772       H  0.30238232  0.85740381  0.42908867     0.08100
H1773       H  0.28006856  0.83121408  0.31004573     0.26500
H1774       H  0.37024351  0.94403402  0.38816807     0.21300
H1775       H  0.28219955  0.90783358  0.48654665     0.26600
H1776       H  0.37364517  0.85982023  0.41980807     0.15500
C1777       C  0.22083451  0.60741667  0.27300038    -0.11800
C1778       C  0.20036851  0.60738560  0.25352009     0.14700
C1779       C  0.19854307  0.62887845  0.23493126     0.01600
C1780       C  0.21786367  0.64941308  0.23557494    -0.16200
C1781       C  0.23881857  0.64906658  0.25457584    -0.11000
C1782       C  0.23988994  0.62814909  0.27396014     0.08300
C1783       C  0.18198095  0.58403925  0.25265697     0.09400
S1784       S  0.17268005  0.63080506  0.20942880    -0.25300
H1785       H  0.21690183  0.66546721  0.22073705     0.19600
S1786       S  0.26462101  0.62692316  0.30067959    -0.31000
H1787       H  0.22200488  0.59106696  0.28749735     0.09900
C1788       C  0.18616593  0.56271610  0.23438675     0.03100
C1789       C  0.16954671  0.53989440  0.23570631    -0.13300
C1790       C  0.14872381  0.53799507  0.25488226    -0.09000
C1791       C  0.14446831  0.55969332  0.27297313     0.06600
C1792       C  0.16103816  0.58248891  0.27153510    -0.14100
S1793       S  0.21321344  0.56419277  0.21000013    -0.31000
H1794       H  0.17293032  0.52332656  0.22186592     0.10800
S1795       S  0.11963261  0.55892025  0.29950041    -0.28100
H1796       H  0.15810289  0.59886386  0.28574330     0.08100
H1797       H  0.26729835  0.65500496  0.30360649     0.26500
H1798       H  0.20533154  0.54138095  0.19503884     0.21300
H1799       H  0.12488199  0.53200113  0.30687659     0.26600
H1800       H  0.15289241  0.61641586  0.22373946     0.15500
C1801       C  0.18324136  0.41290595  0.23244982    -0.11800
C1802       C  0.17915912  0.39316792  0.25228136     0.14700
C1803       C  0.15768484  0.39598177  0.27077901     0.01600
C1804       C  0.14127822  0.41889552  0.26943970    -0.16200
C1805       C  0.14636008  0.43943837  0.25059579    -0.11000
C1806       C  0.16701387  0.43587721  0.23125841     0.08300
C1807       C  0.19904511  0.37118457  0.25420008     0.09400
S1808       S  0.15080705  0.37192120  0.29729348    -0.25300
H1809       H  0.12544791  0.42145690  0.28429864     0.19600
S1810       S  0.17371780  0.45973368  0.20456051    -0.31000
H1811       H  0.19954232  0.41057666  0.21805679     0.09900
C1812       C  0.19302553  0.34464925  0.24625849     0.03100
C1813       C  0.21317388  0.32494694  0.24776306    -0.13300
C1814       C  0.23950143  0.33130490  0.25635383    -0.09000
C1815       C  0.24494509  0.35782867  0.26569233     0.06600
C1816       C  0.22470446  0.37744448  0.26411830    -0.14100
S1817       S  0.15999453  0.33605808  0.23351674    -0.31000
H1818       H  0.20841058  0.30454478  0.24177349     0.10800
S1819       S  0.27669824  0.36689815  0.28127788    -0.28100
H1820       H  0.22868382  0.39785094  0.27086853     0.08100
H1821       H  0.14688167  0.46848172  0.20184528     0.26500
H1822       H  0.16510959  0.30850960  0.22893179     0.21300
H1823       H  0.27145246  0.39460393  0.28456921     0.26600
H1824       H  0.17708089  0.36174238  0.30000930     0.15500
C1825       C  0.30721919  0.56863782  0.39933138    -0.11800
C1826       C  0.33098905  0.58391123  0.39837844     0.14700
C1827       C  0.35284037  0.57704201  0.41527501     0.01600
C1828       C  0.35097776  0.55410668  0.43162413    -0.16200
C1829       C  0.32764596  0.53814617  0.43162908    -0.11000
C1830       C  0.30525955  0.54589283  0.41596829     0.08300
C1831       C  0.33234042  0.60639248  0.37895643     0.09400
S1832       S  0.38378006  0.59617606  0.41635076    -0.25300
H1833       H  0.36808003  0.54827940  0.44392532     0.19600
S1834       S  0.27400755  0.52729952  0.41763173    -0.31000
H1835       H  0.29039210  0.57434958  0.38662947     0.09900
C1836       C  0.34652185  0.60394910  0.35446386     0.03100
C1837       C  0.34562041  0.62515546  0.33580827    -0.13300
C1838       C  0.33055417  0.64863068  0.34099748    -0.09000
C1839       C  0.31635174  0.65088863  0.36567697     0.06600
C1840       C  0.31761116  0.62985830  0.38440573    -0.14100
S1841       S  0.36507067  0.57355061  0.34660615    -0.31000
H1842       H  0.35663439  0.62341706  0.31701869     0.10800
S1843       S  0.29499063  0.67914897  0.37394519    -0.28100
H1844       H  0.30640813  0.63144314  0.40312228     0.08100
H1845       H  0.25853077  0.54551590  0.40233001     0.26500
H1846       H  0.37299754  0.58108703  0.32040082     0.21300
H1847       H  0.28351749  0.68111776  0.34804953     0.26600
H1848       H  0.37275496  0.62102119  0.40828135     0.15500
C1849       C  0.34777416  0.37209828  0.35990039    -0.11800
C1850       C  0.32987523  0.36979159  0.38162965     0.14700
C1851       C  0.31306417  0.34693928  0.38371790     0.01600
C1852       C  0.31421259  0.32706045  0.36376168    -0.16200
C1853       C  0.33176212  0.32954517  0.34168036    -0.11000
C1854       C  0.34906866  0.35219703  0.34000944     0.08300
C1855       C  0.32790472  0.39263572  0.40049711     0.09400
S1856       S  0.28919491  0.34241944  0.41078986    -0.25300
H1857       H  0.30082131  0.30981590  0.36514335     0.19600
S1858       S  0.37344941  0.35685938  0.31339895    -0.31000
H1859       H  0.36066448  0.38970780  0.35833285     0.09900
C1860       C  0.34755413  0.39711707  0.42048857     0.03100
C1861       C  0.34610581  0.42053284  0.43631540    -0.13300
C1862       C  0.32543693  0.43948006  0.43232147    -0.09000
C1863       C  0.30508414  0.43414377  0.41312274     0.06600
C1864       C  0.30669517  0.41094658  0.39723731    -0.14100
S1865       S  0.37455558  0.37318780  0.42549517    -0.31000
H1866       H  0.36160869  0.42459975  0.45115368     0.10800
S1867       S  0.27628128  0.45572894  0.40830979    -0.28100
H1868       H  0.29142399  0.40720711  0.38204221     0.08100
H1869       H  0.37898797  0.32925099  0.31014558     0.26500
H1870       H  0.38598657  0.38590724  0.44814892     0.21300
H1871       H  0.27466152  0.46418893  0.43536411     0.26600
H1872       H  0.30394211  0.35666444  0.43037388     0.15500
C1873       C  0.19060984  0.25277516  0.35308160    -0.11800
C1874       C  0.19584263  0.24111332  0.37827291     0.14700
C1875       C  0.22226141  0.23269803  0.38455971     0.01600
C1876       C  0.24266018  0.23558304  0.36526811    -0.16200
C1877       C  0.23725942  0.24577843  0.33933559    -0.11000
C1878       C  0.21095635  0.25559515  0.33375468     0.08300
C1879       C  0.17295517  0.23715100  0.39691024     0.09400
S1880       S  0.23125916  0.21750648  0.41641670    -0.25300
H1881       H  0.26273841  0.22879014  0.37029757     0.19600
S1882       S  0.20207350  0.27296602  0.30305116    -0.31000
H1883       H  0.17042887  0.25978991  0.34846834     0.09900
C1884       C  0.16764062  0.25509022  0.41831270     0.03100
C1885       C  0.14481712  0.25091367  0.43457236    -0.13300
C1886       C  0.12708153  0.22938647  0.42948914    -0.09000
C1887       C  0.13296756  0.21108770  0.40840693     0.06600
C1888       C  0.15565556  0.21530935  0.39226798    -0.14100
S1889       S  0.18917051  0.28392041  0.42403046    -0.31000
H1890       H  0.14014398  0.26504708  0.45057187     0.10800
S1891       S  0.11260459  0.18177629  0.40123757    -0.28100
H1892       H  0.15991399  0.20143483  0.37589695     0.08100
H1893       H  0.22625965  0.28776398  0.30210134     0.26500
H1894       H  0.17586039  0.29343961  0.44722502     0.21300
H1895       H  0.10488144  0.17709008  0.42815009     0.26600
H1896       H  0.20589845  0.20645727  0.42245682     0.15500
C1897       C  0.96494646  0.23811361  0.35533546    -0.11800
C1898       C  0.96047875  0.22088003  0.37726198     0.14700
C1899       C  0.93519466  0.20826485  0.38035933     0.01600
C1900       C  0.91485587  0.21329264  0.36142522    -0.16200
C1901       C  0.91944921  0.23027907  0.33914737    -0.11000
C1902       C  0.94480936  0.24310539  0.33639835     0.08300
C1903       C  0.98260953  0.21778711  0.39684715     0.09400
S1904       S  0.92792265  0.18521550  0.40755258    -0.25300
H1905       H  0.89560816  0.20316649  0.36363165     0.19600
S1906       S  0.95264979  0.26688690  0.30995195    -0.31000
H1907       H  0.98426963  0.24813608  0.35322993     0.09900
C1908       C  0.00603512  0.20336959  0.38995978     0.03100
C1909       C  0.02878788  0.20523892  0.40654444    -0.13300
C1910       C  0.02870738  0.22147755  0.42980821    -0.09000
C1911       C  0.00475081  0.23525740  0.43706368     0.06600
C1912       C  0.98187700  0.23288996  0.42071787    -0.14100
S1913       S  0.00711471  0.18323829  0.35956780    -0.31000
H1914       H  0.04694381  0.19443334  0.40105373     0.10800
S1915       S  0.00268900  0.25827966  0.46515349    -0.28100
H1916       H  0.96394071  0.24437102  0.42564931     0.08100
H1917       H  0.92695415  0.27880734  0.30971727     0.26500
H1918       H  0.03281228  0.17205695  0.36389757     0.21300
H1919       H  0.02774766  0.27053884  0.45992499     0.26600
H1920       H  0.95442309  0.17568982  0.41070215     0.15500
C1921       C  0.19626575  0.13545132  0.22326623    -0.11800
C1922       C  0.19830059  0.11135432  0.23792647     0.14700
C1923       C  0.22109064  0.10695992  0.25441833     0.01600
C1924       C  0.24093488  0.12705178  0.25633193    -0.16200
C1925       C  0.23843774  0.15170393  0.24243945    -0.11000
C1926       C  0.21606146  0.15547818  0.22506082     0.08300
C1927       C  0.17516083  0.09248299  0.23698680     0.09400
S1928       S  0.22610802  0.07638451  0.27358669    -0.25300
H1929       H  0.25815025  0.12366975  0.26936387     0.19600
S1930       S  0.21166555  0.18486084  0.20396653    -0.31000
H1931       H  0.17889347  0.13875749  0.21041442     0.09900
C1932       C  0.15242197  0.09709010  0.25331876     0.03100
C1933       C  0.12968375  0.08058674  0.25052464    -0.13300
C1934       C  0.12898986  0.05948681  0.23159915    -0.09000
C1935       C  0.15196789  0.05475596  0.21529357     0.06600
C1936       C  0.17488792  0.07115715  0.21834347    -0.14100
S1937       S  0.15241782  0.12412990  0.27779176    -0.31000
H1938       H  0.11226270  0.08414368  0.26320062     0.10800
S1939       S  0.15272041  0.02946135  0.18915265    -0.28100
H1940       H  0.19225752  0.06789480  0.20548617     0.08100
H1941       H  0.23913469  0.18845160  0.19819196     0.26500
H1942       H  0.12522477  0.12172244  0.28545791     0.21300
H1943       H  0.12578747  0.03319618  0.18109763     0.26600
H1944       H  0.19889561  0.06911516  0.27632596     0.15500
C1945       C  0.96556199  0.13347152  0.25223950    -0.11800
C1946       C  0.96088095  0.11034336  0.23665328     0.14700
C1947       C  0.93477220  0.10560113  0.22631119     0.01600
C1948       C  0.91426543  0.12451771  0.23112948    -0.16200
C1949       C  0.91926220  0.14832870  0.24583383    -0.11000
C1950       C  0.94522745  0.15232362  0.25706873     0.08300
C1951       C  0.98389795  0.09180451  0.23207143     0.09400
S1952       S  0.92648860  0.07634337  0.20628054    -0.25300
H1953       H  0.89453183  0.12108419  0.22240577     0.19600
S1954       S  0.95377908  0.18053507  0.27845154    -0.31000
H1955       H  0.98538176  0.13682484  0.26083196     0.09900
C1956       C  0.00682973  0.10048362  0.21768737     0.03100
C1957       C  0.02967909  0.08394237  0.21667288    -0.13300
C1958       C  0.03033878  0.05882628  0.22983803    -0.09000
C1959       C  0.00701507  0.04986993  0.24372747     0.06600
C1960       C  0.98403136  0.06633582  0.24445679    -0.14100
S1961       S  0.00702714  0.13271538  0.20055085    -0.31000
H1962       H  0.04727208  0.09071649  0.20565275     0.10800
S1963       S  0.00582073  0.01880748  0.26263265    -0.28100
H1964       H  0.96654791  0.05981990  0.25584585     0.08100
H1965       H  0.92897133  0.18060602  0.29222236     0.26500
H1966       H  0.03402469  0.13188985  0.19191139     0.21300
H1967       H  0.03160232  0.02202010  0.27402781     0.26600
H1968       H  0.95227796  0.07251283  0.19519678     0.15500
C1969       C  0.93508247  0.73516429  0.38506540    -0.11800
C1970       C  0.95781308  0.75121901  0.38033350     0.14700
C1971       C  0.95996970  0.76585354  0.35602226     0.01600
C1972       C  0.93978410  0.76347541  0.33655769    -0.16200
C1973       C  0.91723887  0.74692514  0.34089533    -0.11000
C1974       C  0.91492809  0.73257583  0.36553270     0.08300
C1975       C  0.98083967  0.74897868  0.39892607     0.09400
S1976       S  0.98840363  0.78722630  0.34839173    -0.25300
H1977       H  0.94164498  0.77477585  0.31791334     0.19600
S1978       S  0.88811451  0.70895756  0.37246968    -0.31000
H1979       H  0.93378565  0.72342708  0.40348507     0.09900
C1980       C  0.98228893  0.76374650  0.42312876     0.03100
C1981       C  0.00574427  0.76212756  0.43891419    -0.13300
C1982       C  0.02764143  0.74595648  0.43085356    -0.09000
C1983       C  0.02512522  0.72984679  0.40738108     0.06600
C1984       C  0.00199774  0.73187632  0.39155606    -0.14100
S1985       S  0.95489812  0.78559701  0.43304889    -0.31000
H1986       H  0.00746762  0.77432686  0.45695653     0.10800
S1987       S  0.05023337  0.70579044  0.39671316    -0.28100
H1988       H  0.00044368  0.72002083  0.37322599     0.08100
H1989       H  0.88749752  0.69823408  0.34619659     0.26500
H1990       H  0.96750979  0.79648899  0.45602504     0.21300
H1991       H  0.05766303  0.69818824  0.42304186     0.26600
H1992       H  0.99380034  0.79468443  0.37522334     0.15500
C1993       C  0.17359913  0.73872867  0.42214698    -0.11800
C1994       C  0.17243114  0.74898606  0.39576042     0.14700
C1995       C  0.14816371  0.76051454  0.38639964     0.01600
C1996       C  0.12547980  0.76057329  0.40305739    -0.16200
C1997       C  0.12628135  0.74979427  0.42928448    -0.11000
C1998       C  0.15083783  0.73885319  0.43894445     0.08300
C1999       C  0.19575138  0.74505260  0.37745911     0.09400
S2000       S  0.14472924  0.77536907  0.35331151    -0.25300
H2001       H  0.10699026  0.76937474  0.39542340     0.19600
S2002       S  0.15412073  0.72303173  0.47153841    -0.31000
H2003       H  0.19207994  0.72950712  0.42928278     0.09900
C2004       C  0.22046327  0.75854727  0.38136076     0.03100
C2005       C  0.24127841  0.75517954  0.36242720    -0.13300
C2006       C  0.23779838  0.73881622  0.33949685    -0.09000
C2007       C  0.21330605  0.72446290  0.33633603     0.06600
C2008       C  0.19264703  0.72785419  0.35520863    -0.14100
S2009       S  0.22494892  0.78128824  0.40949451    -0.31000
H2010       H  0.25997208  0.76618651  0.36491266     0.10800
S2011       S  0.20721173  0.70104691  0.30913270    -0.28100
H2012       H  0.17382942  0.71706103  0.35247864     0.08100
H2013       H  0.12938410  0.70921448  0.46993700     0.26500
H2014       H  0.25132483  0.78950638  0.40305112     0.21300
H2015       H  0.23387907  0.69156156  0.30801096     0.26600
H2016       H  0.17170955  0.78371955  0.35087353     0.15500
C2017       C  0.98178426  0.91164691  0.22331531    -0.11800
C2018       C  0.98320259  0.88540853  0.23375773     0.14700
C2019       C  0.00860616  0.87406709  0.23958148     0.01600
C2020       C  0.03193220  0.88932226  0.23535494    -0.16200
C2021       C  0.03077257  0.91589353  0.22530150    -0.11000
C2022       C  0.00519095  0.92677947  0.21850359     0.08300
C2023       C  0.95827554  0.86916810  0.23567947     0.09400
S2024       S  0.01269259  0.84005450  0.25204917    -0.25300
H2025       H  0.05116744  0.88036752  0.24053585     0.19600
S2026       S  0.00089807  0.95883217  0.20185168    -0.31000
H2027       H  0.96232670  0.91999012  0.21789989     0.09900
C2028       C  0.94091707  0.87077172  0.25817251     0.03100
C2029       C  0.91918913  0.85265609  0.26027772    -0.13300
C2030       C  0.91455960  0.83324610  0.24018021    -0.09000
C2031       C  0.93097903  0.83297314  0.21689087     0.06600
C2032       C  0.95281700  0.85064801  0.21506635    -0.14100
S2033       S  0.94730154  0.89488310  0.28472336    -0.31000
H2034       H  0.90643048  0.85287420  0.27801176     0.10800
S2035       S  0.92509794  0.81061590  0.18877397    -0.28100
H2036       H  0.96590432  0.84976617  0.19756634     0.08100
H2037       H  0.02308501  0.95530695  0.18448948     0.26500
H2038       H  0.92500375  0.88797853  0.30086519     0.21300
H2039       H  0.89705982  0.80847639  0.19236141     0.26600
H2040       H  0.98806651  0.83857971  0.26597198     0.15500
C2041       C  0.15851291  0.87961843  0.21176860    -0.11800
C2042       C  0.17591741  0.88538125  0.23329258     0.14700
C2043       C  0.17075687  0.90789443  0.24996889     0.01600
C2044       C  0.14771232  0.92348677  0.24533614    -0.16200
C2045       C  0.12969440  0.91709143  0.22444825    -0.11000
C2046       C  0.13559405  0.89531271  0.20704309     0.08300
C2047       C  0.19830384  0.86650815  0.23845506     0.09400
S2048       S  0.19177578  0.91700682  0.27827940    -0.25300
H2049       H  0.14327034  0.94015034  0.25879868     0.19600
S2050       S  0.11490283  0.88668330  0.17839228    -0.31000
H2051       H  0.16265449  0.86250438  0.19877950     0.09900
C2052       C  0.19502547  0.84433626  0.25591379     0.03100
C2053       C  0.21601265  0.82560562  0.25867559    -0.13300
C2054       C  0.24011035  0.82841115  0.24402171    -0.09000
C2055       C  0.24310842  0.85063198  0.22625679     0.06600
C2056       C  0.22233239  0.86956732  0.22396513    -0.14100
S2057       S  0.16384262  0.83959436  0.27415146    -0.31000
H2058       H  0.21362495  0.80861896  0.27222449     0.10800
S2059       S  0.27185421  0.85493620  0.20439461    -0.28100
H2060       H  0.22449277  0.88632550  0.21006178     0.08100
H2061       H  0.10629142  0.91320713  0.17307632     0.26500
H2062       H  0.17004226  0.81400032  0.28477413     0.21300
H2063       H  0.27387424  0.82741341  0.19769055     0.26600
H2064       H  0.21548229  0.90426531  0.26953106     0.15500
C2065       C  0.17367741  0.76236538  0.58143845    -0.11800
C2066       C  0.17171466  0.74863206  0.60615159     0.14700
C2067       C  0.14657781  0.73788479  0.61407186     0.01600
C2068       C  0.12390203  0.74201092  0.59785773    -0.16200
C2069       C  0.12558888  0.75610755  0.57330027    -0.11000
C2070       C  0.15097406  0.76626241  0.56497669     0.08300
C2071       C  0.19523816  0.74821680  0.62468369     0.09400
S2072       S  0.14212533  0.71862332  0.64466650    -0.25300
H2073       H  0.10476432  0.73367749  0.60434564     0.19600
S2074       S  0.15555418  0.78572294  0.53457581    -0.31000
H2075       H  0.19284306  0.77098228  0.57542559     0.09900
C2076       C  0.21871891  0.73316984  0.61914953     0.03100
C2077       C  0.23969469  0.73251590  0.63825580    -0.13300
C2078       C  0.23760150  0.74640186  0.66291636    -0.09000
C2079       C  0.21444429  0.76247043  0.66768659     0.06600
C2080       C  0.19358036  0.76294509  0.64875489    -0.14100
S2081       S  0.22132943  0.71359434  0.58853017    -0.31000
H2082       H  0.25740062  0.72046156  0.63435759     0.10800
S2083       S  0.21056228  0.78375344  0.69693768    -0.28100
H2084       H  0.17580692  0.77502284  0.65277857     0.08100
H2085       H  0.13125852  0.80013306  0.53718426     0.26500
H2086       H  0.24781765  0.70437917  0.59271572     0.21300
H2087       H  0.23768575  0.79204263  0.69726651     0.26600
H2088       H  0.16831040  0.70777047  0.64526073     0.15500
C2089       C  0.99994047  0.77753198  0.60940097    -0.11800
C2090       C  0.97921289  0.76046651  0.60060176     0.14700
C2091       C  0.98158836  0.74715319  0.57559356     0.01600
C2092       C  0.00553009  0.74953698  0.56089055    -0.16200
C2093       C  0.02702936  0.76541735  0.57039133    -0.11000
C2094       C  0.02358469  0.78054596  0.59435325     0.08300
C2095       C  0.95642802  0.75544605  0.61900711     0.09400
S2096       S  0.95530999  0.72591864  0.56210623    -0.25300
H2097       H  0.00770354  0.73812064  0.54236254     0.19600
S2098       S  0.04822352  0.80436517  0.60653806    -0.31000
H2099       H  0.99781383  0.78827242  0.62834490     0.09900
C2100       C  0.95621779  0.73270150  0.63608219     0.03100
C2101       C  0.93545882  0.72979013  0.65499752    -0.13300
C2102       C  0.91491358  0.74911574  0.65701864    -0.09000
C2103       C  0.91497184  0.77171204  0.63960736     0.06600
C2104       C  0.93571292  0.77457555  0.62071894    -0.14100
S2105       S  0.98284378  0.70787266  0.63436529    -0.31000
H2106       H  0.93528300  0.71255441  0.66845361     0.10800
S2107       S  0.89007052  0.79822040  0.64139062    -0.28100
H2108       H  0.93611972  0.79216141  0.60771191     0.08100
H2109       H  0.05706063  0.81232515  0.58074774     0.26500
H2110       H  0.97284411  0.69075750  0.65469834     0.21300
H2111       H  0.88665853  0.79731321  0.66955717     0.26600
H2112       H  0.93371621  0.74015664  0.57371089     0.15500
C2113       C  0.19196435  0.84459809  0.75700293    -0.11800
C2114       C  0.19658556  0.86696775  0.74028408     0.14700
C2115       C  0.22258570  0.87118155  0.72950625     0.01600
C2116       C  0.24306427  0.85254313  0.73509001    -0.16200
C2117       C  0.23810211  0.82940573  0.75082325    -0.11000
C2118       C  0.21228162  0.82588652  0.76244133     0.08300
C2119       C  0.17376107  0.88555185  0.73527457     0.09400
S2120       S  0.23066218  0.89919960  0.70769764    -0.25300
H2121       H  0.26270053  0.85549275  0.72595791     0.19600
S2122       S  0.20391917  0.79839647  0.78481889    -0.31000
H2123       H  0.17222415  0.84171318  0.76594472     0.09900
C2124       C  0.15023809  0.87645163  0.72217744     0.03100
C2125       C  0.12749225  0.89312402  0.72138126    -0.13300
C2126       C  0.12768894  0.91886796  0.73324799    -0.09000
C2127       C  0.15169438  0.92834659  0.74550332     0.06600
C2128       C  0.17448797  0.91168133  0.74613522    -0.14100
S2129       S  0.14907782  0.84346562  0.70660182    -0.31000
H2130       H  0.10928055  0.88591700  0.71172765     0.10800
S2131       S  0.15401525  0.96032313  0.76272605    -0.28100
H2132       H  0.19248362  0.91856343  0.75645478     0.08100
H2133       H  0.22931477  0.79756478  0.79743266     0.26500
H2134       H  0.12367926  0.84639196  0.69432928     0.21300
H2135       H  0.12890884  0.95781049  0.77571103     0.26600
H2136       H  0.20496331  0.90142682  0.69596488     0.15500
C2137       C  0.93649447  0.87383208  0.75987009    -0.11800
C2138       C  0.95976982  0.86828994  0.74480206     0.14700
C2139       C  0.96202119  0.84340553  0.73113938     0.01600
C2140       C  0.94115932  0.82459545  0.73295693    -0.16200
C2141       C  0.91784838  0.82986028  0.74817806    -0.11000
C2142       C  0.91569752  0.85479598  0.76204065     0.08300
C2143       C  0.98254875  0.88749817  0.74561434     0.09400
S2144       S  0.99121061  0.83418581  0.71142657    -0.25300
H2145       H  0.94311566  0.80567599  0.72214018     0.19600
S2146       S  0.88810623  0.86281179  0.78435603    -0.31000
H2147       H  0.93503900  0.89267168  0.77089557     0.09900
C2148       C  0.98240016  0.91172395  0.73072958     0.03100
C2149       C  0.00589825  0.92756010  0.72970034    -0.13300
C2150       C  0.02944254  0.91959194  0.74337824    -0.09000
C2151       C  0.02863682  0.89627178  0.75990667     0.06600
C2152       C  0.00543213  0.88036424  0.76048174    -0.14100
S2153       S  0.95284493  0.92156698  0.71187181    -0.31000
H2154       H  0.00628903  0.94554934  0.71730112     0.10800
S2155       S  0.05618097  0.88590053  0.78128070    -0.28100
H2156       H  0.00525007  0.86204655  0.77245505     0.08100
H2157       H  0.88636935  0.83675141  0.79555148     0.26500
H2158       H  0.96383527  0.94515366  0.70052014     0.21300
H2159       H  0.06403231  0.91233632  0.78811327     0.26600
H2160       H  0.99806016  0.86051468  0.70338126     0.15500
C2161       C  0.15224195  0.24949485  0.61215428    -0.11800
C2162       C  0.17408636  0.23389090  0.60336462     0.14700
C2163       C  0.17252347  0.22055753  0.57821387     0.01600
C2164       C  0.14883113  0.22249681  0.56290961    -0.16200
C2165       C  0.12648518  0.23734575  0.57215163    -0.11000
C2166       C  0.12881135  0.25187045  0.59665503     0.08300
C2167       C  0.19794584  0.23209437  0.62120064     0.09400
S2168       S  0.19973388  0.20058297  0.56455033    -0.25300
H2169       H  0.14753946  0.21149574  0.54405176     0.19600
S2170       S  0.10337208  0.27490836  0.60868115    -0.31000
H2171       H  0.15367688  0.26032319  0.63111398     0.09900
C2172       C  0.22117824  0.24783496  0.61677257     0.03100
C2173       C  0.24243693  0.24681696  0.63548795    -0.13300
C2174       C  0.24053294  0.23105105  0.65898917    -0.09000
C2175       C  0.21773979  0.21420219  0.66249226     0.06600
C2176       C  0.19662250  0.21521158  0.64383254    -0.14100
S2177       S  0.22313626  0.27013396  0.58801014    -0.31000
H2178       H  0.26018778  0.25902257  0.63228794     0.10800
S2179       S  0.21476167  0.19027331  0.68976300    -0.28100
H2180       H  0.17894527  0.20273028  0.64696618     0.08100
H2181       H  0.09606434  0.28418081  0.58284666     0.26500
H2182       H  0.24807823  0.28190924  0.59461194     0.21300
H2183       H  0.24242650  0.18403853  0.69064671     0.26600
H2184       H  0.21235264  0.19426563  0.58910843     0.15500
C2185       C  0.98175045  0.21901823  0.58013487    -0.11800
C2186       C  0.97913291  0.23811061  0.60084338     0.14700
C2187       C  0.00050556  0.25619329  0.60605628     0.01600
C2188       C  0.02434123  0.25406873  0.59116838    -0.16200
C2189       C  0.02733039  0.23458117  0.57082611    -0.11000
C2190       C  0.00558465  0.21697313  0.56513585     0.08300
C2191       C  0.95572867  0.23605920  0.61909941     0.09400
S2192       S  0.99932732  0.28162966  0.63214555    -0.25300
H2193       H  0.04073769  0.26786740  0.59548090     0.19600
S2194       S  0.00750085  0.19032266  0.54043615    -0.31000
H2195       H  0.96551635  0.20483945  0.57643664     0.09900
C2196       C  0.93226976  0.25162838  0.61542213     0.03100
C2197       C  0.91163650  0.25030876  0.63476121    -0.13300
C2198       C  0.91394437  0.23332303  0.65735940    -0.09000
C2199       C  0.93654688  0.21608496  0.65961832     0.06600
C2200       C  0.95736821  0.21803780  0.64078843    -0.14100
S2201       S  0.92932430  0.27416532  0.58696477    -0.31000
H2202       H  0.89420351  0.26332493  0.63287434     0.10800
S2203       S  0.93976364  0.19069366  0.68553009    -0.28100
H2204       H  0.97505804  0.20539132  0.64303147     0.08100
H2205       H  0.03450622  0.18365135  0.54592871     0.26500
H2206       H  0.90215217  0.28110822  0.59122399     0.21300
H2207       H  0.91201522  0.18520314  0.68743214     0.26600
H2208       H  0.97124477  0.28446700  0.63346180     0.15500
C2209       C  0.19515521  0.12977965  0.75702308    -0.11800
C2210       C  0.19829066  0.10962107  0.73742206     0.14700
C2211       C  0.22268580  0.10788362  0.72284550     0.01600
C2212       C  0.24310596  0.12677332  0.72780488    -0.16200
C2213       C  0.23955318  0.14766226  0.74667640    -0.11000
C2214       C  0.21558856  0.14854879  0.76205911     0.08300
C2215       C  0.17516918  0.09162918  0.73212338     0.09400
S2216       S  0.22897781  0.08252811  0.69742228    -0.25300
H2217       H  0.26147922  0.12583789  0.71599612     0.19600
S2218       S  0.21015350  0.17260248  0.78884790    -0.31000
H2219       H  0.17658554  0.13086739  0.76850751     0.09900
C2220       C  0.17328854  0.06572206  0.74363632     0.03100
C2221       C  0.14974688  0.05049696  0.73977701    -0.13300
C2222       C  0.12816460  0.06060861  0.72437844    -0.09000
C2223       C  0.13110087  0.08585594  0.71129789     0.06600
C2224       C  0.15425089  0.10126740  0.71580771    -0.14100
S2225       S  0.20035348  0.05252675  0.76409118    -0.31000
H2226       H  0.14772286  0.03115441  0.74975162     0.10800
S2227       S  0.10658355  0.09928869  0.68802153    -0.28100
H2228       H  0.15609168  0.12093749  0.70639249     0.08100
H2229       H  0.23730653  0.17380973  0.79693037     0.26500
H2230       H  0.19004328  0.02616557  0.76650614     0.21300
H2231       H  0.09879731  0.07400732  0.67767585     0.26600
H2232       H  0.20206847  0.07654887  0.69104163     0.15500
C2233       C  0.98546333  0.07132384  0.74693464    -0.11800
C2234       C  0.98271315  0.09327814  0.72935220     0.14700
C2235       C  0.00314217  0.09885416  0.71033273     0.01600
C2236       C  0.02628809  0.08281325  0.70998260    -0.16200
C2237       C  0.02946234  0.06123500  0.72806798    -0.11000
C2238       C  0.00869098  0.05541469  0.74672886     0.08300
C2239       C  0.96014818  0.11192334  0.73397966     0.09400
S2240       S  0.00162920  0.12663753  0.68675576    -0.25300
H2241       H  0.04206914  0.08731574  0.69553309     0.19600
S2242       S  0.01136743  0.02956829  0.77221109    -0.31000
H2243       H  0.96994898  0.06741338  0.76184745     0.09900
C2244       C  0.93510050  0.10855170  0.72112517     0.03100
C2245       C  0.91443974  0.12716099  0.72619934    -0.13300
C2246       C  0.91829424  0.14859583  0.74439495    -0.09000
C2247       C  0.94296978  0.15076749  0.75847274     0.06600
C2248       C  0.96378957  0.13278812  0.75265751    -0.14100
S2249       S  0.92980520  0.08098865  0.69788356    -0.31000
H2250       H  0.89549878  0.12544481  0.71547398     0.10800
S2251       S  0.94871739  0.17510112  0.78495398    -0.28100
H2252       H  0.98285292  0.13469563  0.76318084     0.08100
H2253       H  0.03878722  0.03425895  0.77773475     0.26500
H2254       H  0.90256953  0.08659746  0.69231509     0.21300
H2255       H  0.92199291  0.17499661  0.79447266     0.26600
H2256       H  0.97368428  0.13087027  0.68749937     0.15500
C2257       C  0.45860648  0.13107966  0.22857112    -0.11800
C2258       C  0.45539188  0.10805237  0.24467647     0.14700
C2259       C  0.43337853  0.10653951  0.26273492     0.01600
C2260       C  0.41463983  0.12762198  0.26357572    -0.16200
C2261       C  0.41741547  0.15043072  0.24699224    -0.11000
C2262       C  0.43971455  0.15206813  0.22921652     0.08300
C2263       C  0.47347886  0.08477107  0.24005849     0.09400
S2264       S  0.42745640  0.07798510  0.28460897    -0.25300
H2265       H  0.39772120  0.12622116  0.27736017     0.19600
S2266       S  0.44410903  0.17921694  0.20533411    -0.31000
H2267       H  0.47521618  0.13206371  0.21438916     0.09900
C2268       C  0.46512125  0.06284608  0.22406245     0.03100
C2269       C  0.48164776  0.04000008  0.22197077    -0.13300
C2270       C  0.50668221  0.03868760  0.23522673    -0.09000
C2271       C  0.51549287  0.06137784  0.25033055     0.06600
C2272       C  0.49889247  0.08418971  0.25235884    -0.14100
S2273       S  0.43333214  0.06405739  0.20629358    -0.31000
H2274       H  0.47494655  0.02296172  0.21004389     0.10800
S2275       S  0.54671014  0.06205911  0.26892095    -0.28100
H2276       H  0.50535246  0.10120752  0.26448997     0.08100
H2277       H  0.41654361  0.18177977  0.19915579     0.26500
H2278       H  0.43626718  0.03943907  0.19246857     0.21300
H2279       H  0.54326292  0.03613662  0.28001011     0.26600
H2280       H  0.45408438  0.06843581  0.28543840     0.15500
C2281       C  0.46885628  0.91102867  0.22302059    -0.11800
C2282       C  0.47610441  0.89217836  0.24284724     0.14700
C2283       C  0.49975594  0.89646155  0.25816538     0.01600
C2284       C  0.51481136  0.92009949  0.25409277    -0.16200
C2285       C  0.50698365  0.93948298  0.23491065    -0.11000
C2286       C  0.48414872  0.93435623  0.21865030     0.08300
C2287       C  0.45805132  0.86872319  0.24695000     0.09400
S2288       S  0.51164014  0.87317192  0.28357565    -0.25300
H2289       H  0.53243026  0.92371984  0.26650811     0.19600
S2290       S  0.47391125  0.95628831  0.19147228    -0.31000
H2291       H  0.45105449  0.90750869  0.21082646     0.09900
C2292       C  0.43782161  0.86893709  0.26691418     0.03100
C2293       C  0.41870650  0.84802526  0.26760150    -0.13300
C2294       C  0.41978190  0.82658520  0.24906715    -0.09000
C2295       C  0.44089084  0.82588946  0.22984343     0.06600
C2296       C  0.45964658  0.84698305  0.22895356    -0.14100
S2297       S  0.43615374  0.89606298  0.29120259    -0.31000
H2298       H  0.40283003  0.84833028  0.28260261     0.10800
S2299       S  0.44451064  0.79944848  0.20508793    -0.28100
H2300       H  0.47521973  0.84685278  0.21360911     0.08100
H2301       H  0.50013066  0.96466307  0.18460529     0.26500
H2302       H  0.41322880  0.88671928  0.30507056     0.21300
H2303       H  0.41682201  0.79520078  0.20094198     0.26600
H2304       H  0.49575366  0.85082850  0.27651602     0.15500
C2305       C  0.31744640  0.08614305  0.08121460    -0.11800
C2306       C  0.32921533  0.08530795  0.10689756     0.14700
C2307       C  0.34027671  0.06094767  0.11651861     0.01600
C2308       C  0.33915378  0.03790305  0.10036274    -0.16200
C2309       C  0.32732215  0.03848303  0.07457898    -0.11000
C2310       C  0.31605454  0.06298077  0.06508686     0.08300
C2311       C  0.32752970  0.10940365  0.12423151     0.09400
S2312       S  0.35561508  0.05779952  0.14940838    -0.25300
H2313       H  0.34789284  0.01935916  0.10798180     0.19600
S2314       S  0.29794218  0.06572659  0.03367983    -0.31000
H2315       H  0.30840361  0.10475485  0.07412370     0.09900
C2316       C  0.34634467  0.13060225  0.12223179     0.03100
C2317       C  0.34484830  0.15225039  0.14042544    -0.13300
C2318       C  0.32489199  0.15290910  0.16048838    -0.09000
C2319       C  0.30532396  0.13219471  0.16151190     0.06600
C2320       C  0.30703856  0.11054926  0.14359726    -0.14100
S2321       S  0.37304955  0.12925240  0.09752852    -0.31000
H2322       H  0.35984817  0.16812821  0.13976266     0.10800
S2323       S  0.27741335  0.13248028  0.18478867    -0.28100
H2324       H  0.29233906  0.09439325  0.14477382     0.08100
H2325       H  0.28458744  0.04081937  0.03651893     0.26500
H2326       H  0.38456917  0.15441970  0.10382302     0.21300
H2327       H  0.27527118  0.16072849  0.18574771     0.26600
H2328       H  0.36512192  0.08445900  0.15113905     0.15500
C2329       C  0.33378574  0.89233812  0.08124050    -0.11800
C2330       C  0.32191454  0.89375172  0.10683934     0.14700
C2331       C  0.30997497  0.91804087  0.11548796     0.01600
C2332       C  0.31096557  0.94062747  0.09872324    -0.16200
C2333       C  0.32357961  0.93974020  0.07328505    -0.11000
C2334       C  0.33467879  0.91492196  0.06431303     0.08300
C2335       C  0.32484999  0.87051988  0.12511906     0.09400
S2336       S  0.29410714  0.92193346  0.14806032    -0.25300
H2337       H  0.30200385  0.95923590  0.10590213     0.19600
S2338       S  0.35228774  0.91108110  0.03277895    -0.31000
H2339       H  0.34321335  0.87368670  0.07477518     0.09900
C2340       C  0.30847514  0.84744743  0.12271999     0.03100
C2341       C  0.31196744  0.82605468  0.14088612    -0.13300
C2342       C  0.33133898  0.82750982  0.16149774    -0.09000
C2343       C  0.34815625  0.85050185  0.16336246     0.06600
C2344       C  0.34459548  0.87177290  0.14525619    -0.14100
S2345       S  0.28215169  0.84597421  0.09760352    -0.31000
H2346       H  0.29879161  0.80865187  0.13980755     0.10800
S2347       S  0.37476143  0.85383165  0.18797739    -0.28100
H2348       H  0.35735454  0.88947796  0.14679930     0.08100
H2349       H  0.32882947  0.91524065  0.01735909     0.26500
H2350       H  0.27427747  0.81915651  0.10265508     0.21300
H2351       H  0.38058099  0.82611860  0.18938347     0.26600
H2352       H  0.28723976  0.89468580  0.15183492     0.15500
C2353       C  0.66014719  0.08220267  0.76187042    -0.11800
C2354       C  0.68556377  0.08058615  0.74962813     0.14700
C2355       C  0.69385291  0.05617243  0.73759771     0.01600
C2356       C  0.67680572  0.03376433  0.73858877    -0.16200
C2357       C  0.65142952  0.03513320  0.75113166    -0.11000
C2358       C  0.64310178  0.05973161  0.76299597     0.08300
C2359       C  0.70381930  0.10399265  0.75157499     0.09400
S2360       S  0.72602389  0.05221994  0.72102757    -0.25300
H2361       H  0.68341273  0.01506384  0.72935760     0.19600
S2362       S  0.61204848  0.06335764  0.78152810    -0.31000
H2363       H  0.65399207  0.10085904  0.77149608     0.09900
C2364       C  0.69979631  0.12734970  0.73591467     0.03100
C2365       C  0.71815031  0.14876999  0.73795810    -0.13300
C2366       C  0.74042433  0.14717257  0.75537004    -0.09000
C2367       C  0.74371457  0.12408025  0.77187188     0.06600
C2368       C  0.72554295  0.10268596  0.76956174    -0.14100
S2369       S  0.67220897  0.12921558  0.71224428    -0.31000
H2370       H  0.71577480  0.16633591  0.72516440     0.10800
S2371       S  0.77025699  0.12073885  0.79659670    -0.28100
H2372       H  0.72826153  0.08485985  0.78195654     0.08100
H2373       H  0.61380106  0.03803051  0.79426501     0.26500
H2374       H  0.67488188  0.15689354  0.70651686     0.21300
H2375       H  0.77216913  0.14837410  0.80260207     0.26600
H2376       H  0.72859002  0.07917953  0.71255135     0.15500
C2377       C  0.69605327  0.84507973  0.77437452    -0.11800
C2378       C  0.69896099  0.86819546  0.75832530     0.14700
C2379       C  0.72191793  0.87099692  0.74172747     0.01600
C2380       C  0.74146504  0.85072122  0.74157396    -0.16200
C2381       C  0.73865776  0.82749710  0.75756332    -0.11000
C2382       C  0.71580124  0.82487478  0.77445646     0.08300
C2383       C  0.67929848  0.89036188  0.76111639     0.09400
S2384       S  0.72780381  0.90024707  0.72080349    -0.25300
H2385       H  0.75890291  0.85295680  0.72856758     0.19600
S2386       S  0.71156602  0.79731916  0.79789002    -0.31000
H2387       H  0.67877589  0.84326430  0.78764163     0.09900
C2388       C  0.65517672  0.89094142  0.74614608     0.03100
C2389       C  0.63934764  0.91444801  0.74631706    -0.13300
C2390       C  0.64707211  0.93708356  0.76159143    -0.09000
C2391       C  0.66978221  0.93514232  0.77875745     0.06600
C2392       C  0.68593563  0.91210129  0.77785850    -0.14100
S2393       S  0.64551884  0.86240558  0.72565631    -0.31000
H2394       H  0.62170703  0.91567420  0.73351353     0.10800
S2395       S  0.67899895  0.96107128  0.80259552    -0.28100
H2396       H  0.70405422  0.91121079  0.79005279     0.08100
H2397       H  0.73907519  0.79516015  0.80449171     0.26500
H2398       H  0.62055817  0.87284732  0.71714341     0.21300
H2399       H  0.65239266  0.96951234  0.80770053     0.26600
H2400       H  0.70059238  0.90612444  0.71564540     0.15500
C2401       C  0.83423597  0.05780678  0.88514463    -0.11800
C2402       C  0.84667107  0.08127084  0.89472287     0.14700
C2403       C  0.85836847  0.08137843  0.92066341     0.01600
C2404       C  0.85785663  0.05773898  0.93620852    -0.16200
C2405       C  0.84611904  0.03384650  0.92630101    -0.11000
C2406       C  0.83358544  0.03417986  0.90058753     0.08300
C2407       C  0.84600498  0.10529374  0.87708873     0.09400
S2408       S  0.87430045  0.11082910  0.93496568    -0.25300
H2409       H  0.86731006  0.05784780  0.95592484     0.19600
S2410       S  0.81499744  0.00548062  0.88770911    -0.31000
H2411       H  0.82464388  0.05825979  0.86551555     0.09900
C2412       C  0.86234403  0.10676926  0.85389085     0.03100
C2413       C  0.85847300  0.12787478  0.83547603    -0.13300
C2414       C  0.83851082  0.14750347  0.83976007    -0.09000
C2415       C  0.82245776  0.14620315  0.86332490     0.06600
C2416       C  0.82656893  0.12525267  0.88183237    -0.14100
S2417       S  0.88805238  0.08167018  0.84777208    -0.31000
H2418       H  0.87101670  0.12913993  0.81762574     0.10800
S2419       S  0.79535112  0.16950324  0.87018433    -0.28100
H2420       H  0.81372576  0.12379250  0.89947000     0.08100
H2421       H  0.81003338  0.01573783  0.86171318     0.26500
H2422       H  0.89656053  0.09167917  0.82260234     0.21300
H2423       H  0.78772577  0.17333812  0.84314018     0.26600
H2424       H  0.88186159  0.12285257  0.91041888     0.15500
C2425       C  0.86309174  0.90688349  0.89312062    -0.11800
C2426       C  0.84339793  0.88791496  0.90021539     0.14700
C2427       C  0.82763168  0.89196626  0.92356877     0.01600
C2428       C  0.83119046  0.91556406  0.93869663    -0.16200
C2429       C  0.85002930  0.93522710  0.93086956    -0.11000
C2430       C  0.86658202  0.93053366  0.90815869     0.08300
C2431       C  0.83863888  0.86537492  0.88144643     0.09400
S2432       S  0.80171518  0.86871792  0.93429691    -0.25300
H2433       H  0.81837794  0.91912306  0.95605409     0.19600
S2434       S  0.89232207  0.95442424  0.89827559    -0.31000
H2435       H  0.87515988  0.90343735  0.87523064     0.09900
C2436       C  0.81948643  0.86764170  0.86061171     0.03100
C2437       C  0.81734318  0.84699141  0.84147583    -0.13300
C2438       C  0.83415450  0.82425233  0.84264900    -0.09000
C2439       C  0.85329929  0.82200741  0.86370899     0.06600
C2440       C  0.85516007  0.84251553  0.88299091    -0.14100
S2441       S  0.79851682  0.89732091  0.85782415    -0.31000
H2442       H  0.80275638  0.84867424  0.82530253     0.10800
S2443       S  0.87715086  0.79461049  0.86606921    -0.28100
H2444       H  0.87021089  0.84113281  0.89878486     0.08100
H2445       H  0.90307703  0.93924912  0.87683484     0.26500
H2446       H  0.78373464  0.88888085  0.83510917     0.21300
H2447       H  0.88222093  0.79325327  0.83816554     0.26600
H2448       H  0.81143802  0.84574624  0.92086408     0.15500
C2449       C  0.34306770  0.35185068  0.12073908    -0.11800
C2450       C  0.32262715  0.37130958  0.12193110     0.14700
C2451       C  0.30567617  0.37255587  0.14478143     0.01600
C2452       C  0.30937534  0.35400056  0.16577024    -0.16200
C2453       C  0.32894272  0.33357784  0.16388886    -0.11000
C2454       C  0.34646879  0.33306626  0.14144475     0.08300
C2455       C  0.31821475  0.38819098  0.09786260     0.09400
S2456       S  0.27828774  0.39635052  0.14780353    -0.25300
H2457       H  0.29586316  0.35452192  0.18296181     0.19600
S2458       S  0.37354722  0.30903403  0.13804002    -0.31000
H2459       H  0.35615013  0.35098372  0.10323315     0.09900
C2460       C  0.32721453  0.41507545  0.09631347     0.03100
C2461       C  0.32344650  0.42954644  0.07227844    -0.13300
C2462       C  0.31125923  0.41746954  0.04963799    -0.09000
C2463       C  0.30171183  0.39059674  0.05169947     0.06600
C2464       C  0.30557579  0.37627923  0.07561810    -0.14100
S2465       S  0.34452785  0.43048147  0.12442488    -0.31000
H2466       H  0.33094783  0.45001735  0.07080887     0.10800
S2467       S  0.28390675  0.37341652  0.02502513    -0.28100
H2468       H  0.29854530  0.35559830  0.07700294     0.08100
H2469       H  0.37869791  0.30705228  0.16583464     0.26500
H2470       H  0.35150654  0.45464882  0.11122557     0.21300
H2471       H  0.26963135  0.39642755  0.01652490     0.26600
H2472       H  0.27229467  0.39811842  0.12014667     0.15500
C2473       C  0.34104247  0.38270763  0.92530988    -0.11800
C2474       C  0.32265435  0.38688994  0.90427254     0.14700
C2475       C  0.30368764  0.40803273  0.90615108     0.01600
C2476       C  0.30267090  0.42371094  0.92959974    -0.16200
C2477       C  0.32028021  0.41873854  0.95117288    -0.11000
C2478       C  0.34025267  0.39856253  0.94860136     0.08300
C2479       C  0.32232121  0.36744534  0.88176138     0.09400
S2480       S  0.27967584  0.41529947  0.87979516    -0.25300
H2481       H  0.28743587  0.43928923  0.93138995     0.19600
S2482       S  0.36529783  0.39210545  0.97420503    -0.31000
H2483       H  0.35579045  0.36664029  0.92374711     0.09900
C2484       C  0.34220766  0.36781885  0.86150701     0.03100
C2485       C  0.34146190  0.34837757  0.84099929    -0.13300
C2486       C  0.32121810  0.32859408  0.84045921    -0.09000
C2487       C  0.30077948  0.32885393  0.86029870     0.06600
C2488       C  0.30173423  0.34808377  0.88090277    -0.14100
S2489       S  0.36850655  0.39297462  0.86172954    -0.31000
H2490       H  0.35710274  0.34811565  0.82574288     0.10800
S2491       S  0.27262011  0.30580574  0.85997973    -0.28100
H2492       H  0.28623509  0.34809451  0.89632650     0.08100
H2493       H  0.36711570  0.41897941  0.98320909     0.26500
H2494       H  0.37615449  0.38930596  0.83465145     0.21300
H2495       H  0.27104973  0.30359033  0.83171684     0.26600
H2496       H  0.29558518  0.40594719  0.85826207     0.15500
C2497       C  0.18754016  0.27476593  0.07608277    -0.11800
C2498       C  0.18532987  0.25187406  0.09255601     0.14700
C2499       C  0.16511195  0.23256986  0.08712624     0.01600
C2500       C  0.14821788  0.23611158  0.06476777    -0.16200
C2501       C  0.15092700  0.25862679  0.04777698    -0.11000
C2502       C  0.17042981  0.27847891  0.05396033     0.08300
C2503       C  0.20435677  0.24891721  0.11528658     0.09400
S2504       S  0.16046088  0.20257903  0.10728464    -0.25300
H2505       H  0.13334636  0.22076218  0.06013769     0.19600
S2506       S  0.17404221  0.30928648  0.03496280    -0.31000
H2507       H  0.20271482  0.28987074  0.08054836     0.09900
C2508       C  0.22720470  0.23215631  0.11350405     0.03100
C2509       C  0.24496427  0.23056045  0.13547816    -0.13300
C2510       C  0.24053767  0.24568211  0.15910249    -0.09000
C2511       C  0.21770721  0.26272152  0.16050249     0.06600
C2512       C  0.19978683  0.26390689  0.13877452    -0.14100
S2513       S  0.23407078  0.21337499  0.08302751    -0.31000
H2514       H  0.26248224  0.21758366  0.13422614     0.10800
S2515       S  0.21110049  0.28480745  0.18850193    -0.28100
H2516       H  0.18239760  0.27710447  0.13991106     0.08100
H2517       H  0.14688856  0.31099251  0.02698414     0.26500
H2518       H  0.25840889  0.20167065  0.09170818     0.21300
H2519       H  0.23816195  0.29250793  0.19213890     0.26600
H2520       H  0.17058599  0.21304585  0.13160222     0.15500
C2521       C  0.21572314  0.22872574  0.88096204    -0.11800
C2522       C  0.19585067  0.24862762  0.87814946     0.14700
C2523       C  0.19520150  0.26466259  0.85464259     0.01600
C2524       C  0.21508949  0.26113137  0.83492960    -0.16200
C2525       C  0.23544318  0.24166231  0.83805506    -0.11000
C2526       C  0.23527747  0.22481128  0.86106106     0.08300
C2527       C  0.17749606  0.25327775  0.90109310     0.09400
S2528       S  0.16987618  0.29014008  0.84889057    -0.25300
H2529       H  0.21500565  0.27404707  0.81726717     0.19600
S2530       S  0.25907896  0.19771523  0.86606197    -0.31000
H2531       H  0.21608384  0.21626260  0.89894340     0.09900
C2532       C  0.15641607  0.23521511  0.90703166     0.03100
C2533       C  0.14167562  0.23855530  0.93090831    -0.13300
C2534       C  0.14774983  0.25956217  0.94894597    -0.09000
C2535       C  0.16778948  0.27857037  0.94213157     0.06600
C2536       C  0.18258416  0.27514288  0.91828460    -0.14100
S2537       S  0.14859479  0.20774699  0.88439501    -0.31000
H2538       H  0.12604695  0.22417479  0.93605490     0.10800
S2539       S  0.17402771  0.30759871  0.96322362    -0.28100
H2540       H  0.19860173  0.28911490  0.91323224     0.08100
H2541       H  0.26208028  0.19130762  0.83857892     0.26500
H2542       H  0.12457914  0.19975473  0.89723047     0.21300
H2543       H  0.19374449  0.31963674  0.94674576     0.26600
H2544       H  0.14942382  0.27767899  0.86408059     0.15500
C2545       C  0.85924456  0.60290145  0.07347884    -0.11800
C2546       C  0.84213354  0.59474939  0.09446478     0.14700
C2547       C  0.82797833  0.57009656  0.09211870     0.01600
C2548       C  0.83105873  0.55439581  0.06877001    -0.16200
C2549       C  0.84777787  0.56277842  0.04746979    -0.11000
C2550       C  0.86237734  0.58720489  0.05018676     0.08300
C2551       C  0.83869170  0.61310000  0.11784030     0.09400
S2552       S  0.80473425  0.55802117  0.11743256    -0.25300
H2553       H  0.81961570  0.53585123  0.06686817     0.19600
S2554       S  0.88572423  0.59930898  0.02503168    -0.31000
H2555       H  0.87022111  0.62174202  0.07526404     0.09900
C2556       C  0.85648453  0.61252061  0.14001315     0.03100
C2557       C  0.85285478  0.63082457  0.16138529    -0.13300
C2558       C  0.83207243  0.65006891  0.16077103    -0.09000
C2559       C  0.81407163  0.65032219  0.13857616     0.06600
C2560       C  0.81765671  0.63195262  0.11739384    -0.14100
S2561       S  0.88399377  0.58868661  0.14085305    -0.31000
H2562       H  0.86678109  0.63078273  0.17821419     0.10800
S2563       S  0.78590293  0.67324938  0.13620724    -0.28100
H2564       H  0.80394637  0.63235301  0.10036788     0.08100
H2565       H  0.89489042  0.57355792  0.01735885     0.26500
H2566       H  0.89521919  0.59747860  0.16539526     0.21300
H2567       H  0.78084426  0.67435727  0.16411858     0.26600
H2568       H  0.81497005  0.57264413  0.13941078     0.15500
C2569       C  0.82891764  0.56575379  0.90270646    -0.11800
C2570       C  0.84346899  0.58991032  0.90067820     0.14700
C2571       C  0.85990286  0.59825389  0.92233434     0.01600
C2572       C  0.86048630  0.58298441  0.94599288    -0.16200
C2573       C  0.84527772  0.55921015  0.94854542    -0.11000
C2574       C  0.82947843  0.55040083  0.92642692     0.08300
C2575       C  0.83843551  0.60790040  0.87750274     0.09400
S2576       S  0.88001629  0.62859615  0.92122313    -0.25300
H2577       H  0.87296934  0.58977990  0.96260233     0.19600
S2578       S  0.80792726  0.52116087  0.92776310    -0.31000
H2579       H  0.81597513  0.55956671  0.88620252     0.09900
C2580       C  0.84960842  0.60304701  0.85185291     0.03100
C2581       C  0.84590449  0.62218922  0.83128160    -0.13300
C2582       C  0.83123460  0.64602612  0.83597264    -0.09000
C2583       C  0.81833672  0.64958887  0.86122685     0.06600
C2584       C  0.82252978  0.63081799  0.88176270    -0.14100
S2585       S  0.86950682  0.57315499  0.84576905    -0.31000
H2586       H  0.85513813  0.61898067  0.81177568     0.10800
S2587       S  0.79539185  0.67692969  0.86832685    -0.28100
H2588       H  0.81324914  0.63403911  0.90131073     0.08100
H2589       H  0.79917286  0.52569414  0.95438253     0.26500
H2590       H  0.87723823  0.57968603  0.81924607     0.21300
H2591       H  0.78446620  0.67765088  0.84215877     0.26600
H2592       H  0.88449647  0.62826819  0.89320333     0.15500
C2593       C  0.96886673  0.72531497  0.07446679    -0.11800
C2594       C  0.97313347  0.74455519  0.09471538     0.14700
C2595       C  0.99412623  0.76355813  0.09201099     0.01600
C2596       C  0.01010214  0.76324045  0.06876985    -0.16200
C2597       C  0.00552125  0.74433421  0.04820135    -0.11000
C2598       C  0.98491856  0.72485866  0.05133711     0.08300
C2599       C  0.95435459  0.74499044  0.11765781     0.09400
S2600       S  0.00060218  0.78950540  0.11672248    -0.25300
H2601       H  0.02572460  0.77835233  0.06636574     0.19600
S2602       S  0.97832769  0.69871451  0.02685969    -0.31000
H2603       H  0.95277038  0.71066633  0.07665752     0.09900
C2604       C  0.93092377  0.76093732  0.11692304     0.03100
C2605       C  0.91256880  0.75937857  0.13826262    -0.13300
C2606       C  0.91733172  0.74237181  0.16042877    -0.09000
C2607       C  0.94103784  0.72655265  0.16118065     0.06600
C2608       C  0.95931436  0.72808470  0.13976667    -0.14100
S2609       S  0.92430629  0.78304767  0.08869421    -0.31000
H2610       H  0.89448360  0.77161155  0.13782756     0.10800
S2611       S  0.94847667  0.70310279  0.18801990    -0.28100
H2612       H  0.97728644  0.71565175  0.14004281     0.08100
H2613       H  0.00538961  0.69546053  0.01902373     0.26500
H2614       H  0.89989029  0.79369714  0.09843769     0.21300
H2615       H  0.92170178  0.69436494  0.19140071     0.26600
H2616       H  0.99132474  0.77510248  0.13930172     0.15500
C2617       C  0.93645208  0.72319310  0.88105161    -0.11800
C2618       C  0.95701855  0.74251690  0.87914773     0.14700
C2619       C  0.96022865  0.75727372  0.85501501     0.01600
C2620       C  0.94233544  0.75294845  0.83363445    -0.16200
C2621       C  0.92076341  0.73474470  0.83611248    -0.11000
C2622       C  0.91835355  0.71908072  0.85987816     0.08300
C2623       C  0.97450856  0.74670826  0.90289791     0.09400
S2624       S  0.98572841  0.78286505  0.85078874    -0.25300
H2625       H  0.94426833  0.76515765  0.81558142     0.19600
S2626       S  0.89284013  0.69347957  0.86452404    -0.31000
H2627       H  0.93433449  0.71141651  0.89937452     0.09900
C2628       C  0.96409691  0.75793300  0.92680873     0.03100
C2629       C  0.98038688  0.75912624  0.94981721    -0.13300
C2630       C  0.00689136  0.74900790  0.94968073    -0.09000
C2631       C  0.01742959  0.73829078  0.92532589     0.06600
C2632       C  0.00122250  0.73758612  0.90219483    -0.14100
S2633       S  0.93005386  0.77091863  0.92798723    -0.31000
H2634       H  0.97229466  0.76785400  0.96813395     0.10800
S2635       S  0.05043639  0.72336786  0.92268208    -0.28100
H2636       H  0.00907766  0.72873729  0.88379978     0.08100
H2637       H  0.89123794  0.68618204  0.83715478     0.26500
H2638       H  0.92914404  0.77545071  0.95599741     0.21300
H2639       H  0.04784617  0.70820409  0.94656074     0.26600
H2640       H  0.98591539  0.79145685  0.87782751     0.15500
C2641       C  0.49912500  0.08463524  0.73216141    -0.11800
C2642       C  0.47533460  0.08473136  0.74748785     0.14700
C2643       C  0.46783597  0.06127665  0.76179747     0.01600
C2644       C  0.48370898  0.03809567  0.75987811    -0.16200
C2645       C  0.50739255  0.03772616  0.74436829    -0.11000
C2646       C  0.51516853  0.06138271  0.73035018     0.08300
C2647       C  0.45706461  0.10829530  0.74619326     0.09400
S2648       S  0.43801204  0.05956292  0.78262242    -0.25300
H2649       H  0.47761724  0.02019515  0.77088797     0.19600
S2650       S  0.54419078  0.06272682  0.70849564    -0.31000
H2651       H  0.50467595  0.10246662  0.72076581     0.09900
C2652       C  0.46279439  0.13274295  0.75953854     0.03100
C2653       C  0.44309466  0.15313287  0.76034629    -0.13300
C2654       C  0.41786216  0.14956592  0.74786509    -0.09000
C2655       C  0.41306925  0.12553639  0.73306764     0.06600
C2656       C  0.43249707  0.10521397  0.73269981    -0.14100
S2657       S  0.49458740  0.13739513  0.77662786    -0.31000
H2658       H  0.44706117  0.17156957  0.77138285     0.10800
S2659       S  0.38311513  0.11971629  0.71334595    -0.28100
H2660       H  0.42835818  0.08660900  0.72194421     0.08100
H2661       H  0.54101161  0.03641068  0.69830135     0.26500
H2662       H  0.49014726  0.16426868  0.78464395     0.21300
H2663       H  0.38282030  0.14604204  0.70278138     0.26600
H2664       H  0.43797329  0.08689986  0.79026493     0.15500
C2665       C  0.49966506  0.89218485  0.75241789    -0.11800
C2666       C  0.47555500  0.89219173  0.73773256     0.14700
C2667       C  0.46848324  0.91511816  0.72242391     0.01600
C2668       C  0.48455049  0.93823313  0.72379114    -0.16200
C2669       C  0.50801859  0.93887372  0.73965067    -0.11000
C2670       C  0.51593119  0.91519814  0.75364327     0.08300
C2671       C  0.45623037  0.86998492  0.74224696     0.09400
S2672       S  0.43892895  0.91623863  0.70122956    -0.25300
H2673       H  0.47858006  0.95593876  0.71241784     0.19600
S2674       S  0.54504642  0.91348636  0.77533086    -0.31000
H2675       H  0.50498415  0.87465726  0.76438440     0.09900
C2676       C  0.46125779  0.84346176  0.73341629     0.03100
C2677       C  0.44183770  0.82344126  0.73804915    -0.13300
C2678       C  0.41769429  0.82931233  0.75178250    -0.09000
C2679       C  0.41376132  0.85558607  0.76229013     0.06600
C2680       C  0.43273213  0.87566477  0.75687135    -0.14100
S2681       S  0.49171915  0.83535548  0.71518389    -0.31000
H2682       H  0.44509023  0.80335646  0.73008318     0.10800
S2683       S  0.38583942  0.86460790  0.78381998    -0.28100
H2684       H  0.42945006  0.89586766  0.76461429     0.08100
H2685       H  0.53983880  0.93836004  0.78800654     0.26500
H2686       H  0.48732319  0.80733686  0.71362730     0.21300
H2687       H  0.38510292  0.83965821  0.79741148     0.26600
H2688       H  0.43767502  0.88830980  0.69627599     0.15500
C2689       C  0.35354089  0.06894900  0.89718677    -0.11800
C2690       C  0.33001741  0.08449816  0.89847607     0.14700
C2691       C  0.31002945  0.07832606  0.91779188     0.01600
C2692       C  0.31362933  0.05605052  0.93474159    -0.16200
C2693       C  0.33661706  0.03973569  0.93255020    -0.11000
C2694       C  0.35722785  0.04689178  0.91429368     0.08300
C2695       C  0.32721876  0.10704006  0.87938490     0.09400
S2696       S  0.27970386  0.09800056  0.92197684    -0.25300
H2697       H  0.29788456  0.05075535  0.94896639     0.19600
S2698       S  0.38900257  0.02937839  0.91251959    -0.31000
H2699       H  0.36919469  0.07417358  0.88283515     0.09900
C2700       C  0.33769938  0.13271292  0.88525550     0.03100
C2701       C  0.33571792  0.15320544  0.86587864    -0.13300
C2702       C  0.32379930  0.14842191  0.84057527    -0.09000
C2703       C  0.31215377  0.12278863  0.83542383     0.06600
C2704       C  0.31455991  0.10228557  0.85461443    -0.14100
S2705       S  0.35418092  0.13904235  0.91714387    -0.31000
H2706       H  0.34400940  0.17284066  0.87025298     0.10800
S2707       S  0.29277777  0.11518982  0.80557320    -0.28100
H2708       H  0.30610096  0.08254258  0.85043599     0.08100
H2709       H  0.38896915  0.02030312  0.93941660     0.26500
H2710       H  0.35906090  0.16667409  0.91295272     0.21300
H2711       H  0.28031080  0.14068007  0.80438109     0.26600
H2712       H  0.27734645  0.10679823  0.89516447     0.15500
C2713       C  0.35212358  0.91337050  0.89356639    -0.11800
C2714       C  0.33303869  0.89371809  0.90036967     0.14700
C2715       C  0.31687125  0.89720602  0.92350077     0.01600
C2716       C  0.31945817  0.92082895  0.93877354    -0.16200
C2717       C  0.33797133  0.94104016  0.93149159    -0.11000
C2718       C  0.35489706  0.93693172  0.90889846     0.08300
C2719       C  0.32981955  0.87062846  0.88187692     0.09400
S2720       S  0.29188425  0.87287820  0.93382718    -0.25300
H2721       H  0.30639930  0.92375878  0.95606536     0.19600
S2722       S  0.38067313  0.96098593  0.89977973    -0.31000
H2723       H  0.36458141  0.91029919  0.87587902     0.09900
C2724       C  0.31197163  0.87199403  0.85984291     0.03100
C2725       C  0.31167542  0.85101695  0.84088021    -0.13300
C2726       C  0.32911408  0.82882647  0.84336661    -0.09000
C2727       C  0.34714123  0.82767447  0.86548135     0.06600
C2728       C  0.34709640  0.84845079  0.88459125    -0.14100
S2729       S  0.29006902  0.90079059  0.85553678    -0.31000
H2730       H  0.29784889  0.85190003  0.82399051     0.10800
S2731       S  0.37198999  0.80141403  0.86947233    -0.28100
H2732       H  0.36132113  0.84785807  0.90118369     0.08100
H2733       H  0.39182119  0.94632308  0.87818678     0.26500
H2734       H  0.28158367  0.89445717  0.82919387     0.21300
H2735       H  0.37781080  0.79917821  0.84179213     0.26600
H2736       H  0.30554928  0.85002273  0.92411403     0.15500
C2737       C  0.66151781  0.08297885  0.22248684    -0.11800
C2738       C  0.68518991  0.08254406  0.23798760     0.14700
C2739       C  0.69174480  0.05905102  0.25264126     0.01600
C2740       C  0.67503670  0.03642074  0.25096112    -0.16200
C2741       C  0.65134906  0.03649656  0.23532739    -0.11000
C2742       C  0.64471256  0.06019891  0.22073887     0.08300
C2743       C  0.70340715  0.10628788  0.23776079     0.09400
S2744       S  0.72126067  0.05660310  0.27379453    -0.25300
H2745       H  0.68047967  0.01866639  0.26247300     0.19600
S2746       S  0.61621984  0.06227389  0.19830491    -0.31000
H2747       H  0.65656510  0.10091683  0.21099290     0.09900
C2748       C  0.72790495  0.10585941  0.22338141     0.03100
C2749       C  0.74586612  0.12758028  0.22584679    -0.13300
C2750       C  0.74003219  0.14982957  0.24251905    -0.09000
C2751       C  0.71520190  0.15029623  0.25663132     0.06600
C2752       C  0.69703684  0.12877765  0.25372298    -0.14100
S2753       S  0.73641269  0.07751895  0.20203946    -0.31000
H2754       H  0.76470626  0.12716192  0.21481580     0.10800
S2755       S  0.70627608  0.17658785  0.28014085    -0.28100
H2756       H  0.67833637  0.12893846  0.26503102     0.08100
H2757       H  0.61977014  0.03620444  0.18760372     0.26500
H2758       H  0.76080446  0.08800005  0.19201779     0.21300
H2759       H  0.73225124  0.17902650  0.29127004     0.26600
H2760       H  0.72139265  0.08375635  0.28201473     0.15500
C2761       C  0.69230346  0.84516113  0.26251798    -0.11800
C2762       C  0.69634009  0.86735470  0.24539490     0.14700
C2763       C  0.72038817  0.86931760  0.23039289     0.01600
C2764       C  0.73989416  0.84925034  0.23288089    -0.16200
C2765       C  0.73590776  0.82674408  0.24959801    -0.11000
C2766       C  0.71200172  0.82501469  0.26508036     0.08300
C2767       C  0.67736227  0.89021654  0.24638514     0.09400
S2768       S  0.72790515  0.89755303  0.20862916    -0.25300
H2769       H  0.75846410  0.85127816  0.22162837     0.19600
S2770       S  0.70661108  0.79924372  0.29021708    -0.31000
H2771       H  0.67429403  0.84421130  0.27486563     0.09900
C2772       C  0.65460380  0.89165974  0.22947411     0.03100
C2773       C  0.63955326  0.91565187  0.22857384    -0.13300
C2774       C  0.64697429  0.93810175  0.24426545    -0.09000
C2775       C  0.66877725  0.93574348  0.26251367     0.06600
C2776       C  0.68385217  0.91200222  0.26311148    -0.14100
S2777       S  0.64594701  0.86370418  0.20777845    -0.31000
H2778       H  0.62277090  0.91737518  0.21471097     0.10800
S2779       S  0.67831721  0.96201385  0.28582291    -0.28100
H2780       H  0.70116238  0.91063232  0.27639588     0.08100
H2781       H  0.73374633  0.79776983  0.29833223     0.26500
H2782       H  0.62161675  0.87459827  0.19807771     0.21300
H2783       H  0.65192922  0.97147526  0.29012221     0.26600
H2784       H  0.70123309  0.90234228  0.20042043     0.15500
C2785       C  0.82139083  0.13261367  0.11386450    -0.11800
C2786       C  0.83788092  0.11023461  0.11898815     0.14700
C2787       C  0.85257829  0.10892800  0.14329312     0.01600
C2788       C  0.84946814  0.12924415  0.16255208    -0.16200
C2789       C  0.83254508  0.15148511  0.15785637    -0.11000
C2790       C  0.81847082  0.15321202  0.13304254     0.08300
C2791       C  0.83699576  0.08692889  0.10045161     0.09400
S2792       S  0.87516517  0.08148855  0.15102082    -0.25300
H2793       H  0.86074532  0.12787461  0.18123846     0.19600
S2794       S  0.79523851  0.18010227  0.12528886    -0.31000
H2795       H  0.80984955  0.13344817  0.09531410     0.09900
C2796       C  0.82076368  0.06443016  0.10649469     0.03100
C2797       C  0.82280311  0.04118863  0.09062801    -0.13300
C2798       C  0.84065708  0.03995101  0.06866868    -0.09000
C2799       C  0.85607272  0.06305290  0.06192174     0.06600
C2800       C  0.85383213  0.08640222  0.07773853    -0.14100
S2801       S  0.79790921  0.06507885  0.13489319    -0.31000
H2802       H  0.81074383  0.02366772  0.09565433     0.10800
S2803       S  0.88030747  0.06348723  0.03481358    -0.28100
H2804       H  0.86629085  0.10378488  0.07316470     0.08100
H2805       H  0.78475718  0.18211196  0.15159886     0.26500
H2806       H  0.78424227  0.04098803  0.12864461     0.21300
H2807       H  0.89043877  0.03751204  0.04017971     0.26600
H2808       H  0.88434794  0.07788858  0.12442494     0.15500
C2809       C  0.81000142  0.86625890  0.13429334    -0.11800
C2810       C  0.83494741  0.87017946  0.12159397     0.14700
C2811       C  0.85633600  0.85219571  0.12687515     0.01600
C2812       C  0.85267417  0.83139097  0.14555369    -0.16200
C2813       C  0.82802104  0.82801606  0.15897931    -0.11000
C2814       C  0.80618296  0.84525295  0.15277505     0.08300
C2815       C  0.83851462  0.89416712  0.10428927     0.09400
S2816       S  0.88886858  0.85515981  0.11092315    -0.25300
H2817       H  0.86938280  0.81804072  0.15006252     0.19600
S2818       S  0.77288010  0.84166420  0.16702623    -0.31000
H2819       H  0.79348967  0.87993319  0.13001199     0.09900
C2820       C  0.82738987  0.89544725  0.07820461     0.03100
C2821       C  0.83085732  0.91891309  0.06275223    -0.13300
C2822       C  0.84498660  0.94127565  0.07302037    -0.09000
C2823       C  0.85664055  0.93955022  0.09907884     0.06600
C2824       C  0.85304826  0.91616073  0.11443613    -0.14100
S2825       S  0.80892007  0.86711977  0.06462121    -0.31000
H2826       H  0.82192420  0.92010379  0.04285643     0.10800
S2827       S  0.87703919  0.96592887  0.11366995    -0.28100
H2828       H  0.86179514  0.91498598  0.13445069     0.08100
H2829       H  0.77668008  0.81744786  0.18113289     0.26500
H2830       H  0.80097706  0.87963732  0.04041616     0.21300
H2831       H  0.88956528  0.97313994  0.08923062     0.26600
H2832       H  0.87925962  0.86581162  0.08644904     0.15500
C2833       C  0.85746678  0.37413925  0.14581886    -0.11800
C2834       C  0.84805403  0.36853242  0.11976907     0.14700
C2835       C  0.83479944  0.34384667  0.11472531     0.01600
C2836       C  0.83151515  0.32527861  0.13565802    -0.16200
C2837       C  0.84081186  0.33068339  0.16193267    -0.11000
C2838       C  0.85426768  0.35551563  0.16684599     0.08300
C2839       C  0.85343999  0.38801653  0.09781451     0.09400
S2840       S  0.82157011  0.33477636  0.08201702    -0.25300
H2841       H  0.82130911  0.30645252  0.13131716     0.19600
S2842       S  0.86941960  0.36422420  0.19872309    -0.31000
H2843       H  0.86810016  0.39288300  0.14958928     0.09900
C2844       C  0.83997285  0.41302735  0.09643288     0.03100
C2845       C  0.84302017  0.42917162  0.07337773    -0.13300
C2846       C  0.85899564  0.42058418  0.05161487    -0.09000
C2847       C  0.87413922  0.39651985  0.05408248     0.06600
C2848       C  0.87106266  0.38046850  0.07704235    -0.14100
S2849       S  0.81721794  0.42334917  0.12295492    -0.31000
H2850       H  0.83153757  0.44766328  0.07155344     0.10800
S2851       S  0.89752459  0.38503951  0.02865634    -0.28100
H2852       H  0.88192872  0.36153750  0.07844429     0.08100
H2853       H  0.88032804  0.33842552  0.20295395     0.26500
H2854       H  0.80835975  0.44736781  0.11068458     0.21300
H2855       H  0.90457356  0.41100238  0.01954802     0.26600
H2856       H  0.81492648  0.36117191  0.07399637     0.15500
C2857       C  0.84724891  0.36875287  0.86208759    -0.11800
C2858       C  0.83493391  0.36272473  0.88674128     0.14700
C2859       C  0.82026038  0.33848503  0.88955097     0.01600
C2860       C  0.81915092  0.32031682  0.86794531    -0.16200
C2861       C  0.83208321  0.32592200  0.84329348    -0.11000
C2862       C  0.84625203  0.35059397  0.84052633     0.08300
C2863       C  0.83946213  0.38117854  0.90967796     0.09400
S2864       S  0.80313206  0.32930835  0.92034433    -0.25300
H2865       H  0.80800836  0.30165322  0.87041611     0.19600
S2866       S  0.86525385  0.35935724  0.81093438    -0.31000
H2867       H  0.85872175  0.38726971  0.86002622     0.09900
C2868       C  0.85940097  0.37573175  0.92913657     0.03100
C2869       C  0.86251370  0.39329543  0.95108138    -0.13300
C2870       C  0.84596220  0.41614289  0.95409153    -0.09000
C2871       C  0.82596603  0.42143418  0.93443381     0.06600
C2872       C  0.82338982  0.40427534  0.91214785    -0.14100
S2873       S  0.88073867  0.34631731  0.92607787    -0.31000
H2874       H  0.87777814  0.38910098  0.96612039     0.10800
S2875       S  0.80159354  0.44815808  0.93770980    -0.28100
H2876       H  0.80791945  0.40824883  0.89722558     0.08100
H2877       H  0.87685937  0.33356733  0.80817210     0.26500
H2878       H  0.89779861  0.35232395  0.94794555     0.21300
H2879       H  0.79771983  0.44456071  0.96561216     0.26600
H2880       H  0.79763083  0.35575381  0.92898293     0.15500
C2881       C  0.96350553  0.22774188  0.14186162    -0.11800
C2882       C  0.95902821  0.24461461  0.11962625     0.14700
C2883       C  0.93573333  0.26084772  0.11865425     0.01600
C2884       C  0.91679248  0.25904241  0.13934898    -0.16200
C2885       C  0.92079025  0.24170273  0.16136910    -0.11000
C2886       C  0.94460133  0.22599143  0.16272775     0.08300
C2887       C  0.97716985  0.24260439  0.09624819     0.09400
S2888       S  0.92878672  0.28379824  0.09125961    -0.25300
H2889       H  0.89883044  0.27146843  0.13834744     0.19600
S2890       S  0.95129035  0.20211255  0.18941097    -0.31000
H2891       H  0.98129206  0.21504633  0.14237956     0.09900
C2892       C  0.00182239  0.25655505  0.09522413     0.03100
C2893       C  0.01729611  0.25548193  0.07157197    -0.13300
C2894       C  0.00853393  0.24061914  0.04902016    -0.09000
C2895       C  0.98438794  0.22545022  0.05088325     0.06600
C2896       C  0.96886837  0.22694492  0.07429466    -0.14100
S2897       S  0.01265523  0.27695192  0.12340459    -0.31000
H2898       H  0.03569088  0.26717001  0.07026443     0.10800
S2899       S  0.97241925  0.20332518  0.02457072    -0.28100
H2900       H  0.95006911  0.21583247  0.07544661     0.08100
H2901       H  0.92450279  0.19301979  0.19148984     0.26500
H2902       H  0.03785587  0.28427328  0.11263371     0.21300
H2903       H  0.99826732  0.19450702  0.01689405     0.26600
H2904       H  0.95583689  0.28985055  0.08537434     0.15500
C2905       C  0.00286509  0.24124086  0.90187583    -0.11800
C2906       C  0.97587373  0.24940647  0.90332987     0.14700
C2907       C  0.96513373  0.25785131  0.92828712     0.01600
C2908       C  0.98112824  0.25667741  0.95140544    -0.16200
C2909       C  0.00805550  0.24786069  0.95031625    -0.11000
C2910       C  0.01905383  0.24027436  0.92498944     0.08300
C2911       C  0.95835923  0.24544605  0.87956509     0.09400
S2912       S  0.93110827  0.27024821  0.93195355    -0.25300
H2913       H  0.97243212  0.26307358  0.97042239     0.19600
S2914       S  0.05276672  0.22739738  0.92076321    -0.31000
H2915       H  0.01100066  0.23433702  0.88278103     0.09900
C2916       C  0.96121910  0.26080267  0.85578351     0.03100
C2917       C  0.94283695  0.25699053  0.83457292    -0.13300
C2918       C  0.92181255  0.23810651  0.83682378    -0.09000
C2919       C  0.92015934  0.22164558  0.86004758     0.06600
C2920       C  0.93821396  0.22570224  0.88118910    -0.14100
S2921       S  0.98720745  0.28620154  0.85306816    -0.31000
H2922       H  0.94407586  0.26954248  0.81672121     0.10800
S2923       S  0.89577895  0.19485213  0.86384881    -0.28100
H2924       H  0.93654404  0.21336710  0.89918654     0.08100
H2925       H  0.05129256  0.21008242  0.94322604     0.26500
H2926       H  0.98069786  0.29487490  0.82683061     0.21300
H2927       H  0.89457102  0.18823545  0.83627056     0.26600
H2928       H  0.92897062  0.28083876  0.90570585     0.15500
C2929       C  0.30063208  0.59841205  0.07831683    -0.11800
C2930       C  0.31741801  0.58910910  0.09903894     0.14700
C2931       C  0.33023833  0.56377811  0.09651739     0.01600
C2932       C  0.32677620  0.54892340  0.07270808    -0.16200
C2933       C  0.31092099  0.55885194  0.05140427    -0.11000
C2934       C  0.29701247  0.58350620  0.05472330     0.08300
C2935       C  0.32183004  0.60735604  0.12207362     0.09400
S2936       S  0.35221093  0.54968612  0.12196984    -0.25300
H2937       H  0.33743185  0.52996815  0.07036766     0.19600
S2938       S  0.27404273  0.59689647  0.02989581    -0.31000
H2939       H  0.29046365  0.61766578  0.08047034     0.09900
C2940       C  0.34131644  0.62796372  0.12068081     0.03100
C2941       C  0.34231939  0.64750701  0.14106511    -0.13300
C2942       C  0.32428861  0.64674398  0.16285779    -0.09000
C2943       C  0.30521010  0.62554402  0.16453722     0.06600
C2944       C  0.30423880  0.60607610  0.14413166    -0.14100
S2945       S  0.36465824  0.62946810  0.09273443    -0.31000
H2946       H  0.35727404  0.66337204  0.14016190     0.10800
S2947       S  0.28063838  0.62294549  0.19127198    -0.28100
H2948       H  0.28905645  0.59035583  0.14492791     0.08100
H2949       H  0.26454019  0.57157946  0.02121574     0.26500
H2950       H  0.37754055  0.65356124  0.10043495     0.21300
H2951       H  0.27601268  0.65087480  0.19339886     0.26600
H2952       H  0.34735403  0.56827161  0.14274527     0.15500
C2953       C  0.30784580  0.57027767  0.90592094    -0.11800
C2954       C  0.32605500  0.59189338  0.90611277     0.14700
C2955       C  0.34109793  0.59741595  0.92962602     0.01600
C2956       C  0.33697624  0.58175163  0.95270030    -0.16200
C2957       C  0.31827346  0.56047017  0.95282682    -0.11000
C2958       C  0.30352729  0.55473528  0.92908422     0.08300
C2959       C  0.32556467  0.61098084  0.88333050     0.09400
S2960       S  0.36517873  0.62467621  0.93169527    -0.25300
H2961       H  0.34849590  0.58622569  0.97074167     0.19600
S2962       S  0.27724864  0.52963599  0.92767222    -0.31000
H2963       H  0.29577598  0.56651857  0.88807592     0.09900
C2964       C  0.33829421  0.60543178  0.85855891     0.03100
C2965       C  0.33768474  0.62494090  0.83803136    -0.13300
C2966       C  0.32422210  0.64964765  0.84178445    -0.09000
C2967       C  0.31013480  0.65425298  0.86620665     0.06600
C2968       C  0.31147546  0.63517209  0.88680554    -0.14100
S2969       S  0.35601000  0.57401150  0.85350470    -0.31000
H2970       H  0.34826880  0.62123412  0.81928319     0.10800
S2971       S  0.28893438  0.68326123  0.87200891    -0.28100
H2972       H  0.30101398  0.63896817  0.90564085     0.08100
H2973       H  0.26739147  0.53478587  0.95380136     0.26500
H2974       H  0.36410290  0.57904090  0.82675460     0.21300
H2975       H  0.27898089  0.68413105  0.84545978     0.26600
H2976       H  0.37139003  0.62566191  0.90403439     0.15500
C2977       C  0.22439146  0.72458305  0.11439240    -0.11800
C2978       C  0.20181806  0.74125962  0.11788713     0.14700
C2979       C  0.19796514  0.75461309  0.14276740     0.01600
C2980       C  0.21709123  0.75146431  0.16327483    -0.16200
C2981       C  0.24024412  0.73557698  0.15954840    -0.11000
C2982       C  0.24348873  0.72138459  0.13494097     0.08300
C2983       C  0.18336782  0.74496480  0.09478837     0.09400
S2984       S  0.16963641  0.77643530  0.14985345    -0.25300
H2985       H  0.21434527  0.76241519  0.18201293     0.19600
S2986       S  0.27103425  0.69843365  0.12866358    -0.31000
H2987       H  0.22718872  0.71406271  0.09541292     0.09900
C2988       C  0.18790830  0.76550657  0.07567852     0.03100
C2989       C  0.17065393  0.76781373  0.05338020    -0.13300
C2990       C  0.14894722  0.74995170  0.04980828    -0.09000
C2991       C  0.14449867  0.72936091  0.06905074     0.06600
C2992       C  0.16155032  0.72729035  0.09149082    -0.14100
S2993       S  0.21588452  0.78854253  0.07965848    -0.31000
H2994       H  0.17425223  0.78334545  0.03842496     0.10800
S2995       S  0.11869790  0.70403686  0.06513014    -0.28100
H2996       H  0.15829247  0.71132108  0.10608236     0.08100
H2997       H  0.27222217  0.68867431  0.15529550     0.26500
H2998       H  0.21076972  0.80406466  0.05645302     0.21300
H2999       H  0.12229679  0.70087275  0.03713647     0.26600
H3000       H  0.15878867  0.77852297  0.12382211     0.15500
C3001       C  0.18316090  0.72517396  0.92559429    -0.11800
C3002       C  0.17915716  0.74359729  0.90456835     0.14700
C3003       C  0.15818983  0.76277817  0.90638061     0.01600
C3004       C  0.14281219  0.76422466  0.93002690    -0.16200
C3005       C  0.14777937  0.74662963  0.95164586    -0.11000
C3006       C  0.16746638  0.72621223  0.94891263     0.08300
C3007       C  0.19880331  0.74357215  0.88229353     0.09400
S3008       S  0.15078426  0.78644301  0.87972214    -0.25300
H3009       H  0.12737281  0.77959401  0.93184772     0.19600
S3010       S  0.17330682  0.70068464  0.97423270    -0.31000
H3011       H  0.19896981  0.71015394  0.92398651     0.09900
C3012       C  0.22041891  0.76199275  0.88204970     0.03100
C3013       C  0.23996984  0.76005463  0.86179362    -0.13300
C3014       C  0.23825171  0.74012022  0.84176097    -0.09000
C3015       C  0.21666645  0.72147707  0.84221537     0.06600
C3016       C  0.19712422  0.72348599  0.86246005    -0.14100
S3017       S  0.22338847  0.78758728  0.90787505    -0.31000
H3018       H  0.25656148  0.77426587  0.86135124     0.10800
S3019       S  0.21341621  0.69409941  0.81837093    -0.28100
H3020       H  0.18075050  0.70900863  0.86309485     0.08100
H3021       H  0.14627236  0.69884301  0.98264565     0.26500
H3022       H  0.24760517  0.79904610  0.89853592     0.21300
H3023       H  0.24113941  0.69022053  0.81406628     0.26600
H3024       H  0.16075370  0.77058260  0.85843008     0.15500
loop_ 
_geom_bond_atom_site_label_1 
_geom_bond_atom_site_label_2 
_geom_bond_distance 
_geom_bond_site_symmetry_2 
_ccdc_geom_bond_type 
C1            N2   1.355   1_556  A
C1            N6   1.354       .  A
C1         C3005   1.468       .  S
N2            C3   1.354       .  A
C3            N4   1.361       .  A
C3         C2990   1.476       .  S
N4            C5   1.363       .  A
C5            N6   1.357   1_554  A
C5           C51   1.468       .  S
C7            N8   1.357       .  A
C7           N12   1.357       .  A
C7         C2933   1.475       .  S
N8            C9   1.358       .  A
C9           N10   1.358   1_554  A
C9           C71   1.464       .  S
N10          C11   1.357       .  A
C11          N12   1.356   1_556  A
C11        C2957   1.475       .  S
C13          N14   1.359       .  A
C13          N18   1.356   1_554  A
C13        C2894   1.478       .  S
N14          C15   1.358       .  A
C15          N16   1.358   1_554  A
C15          C63   1.465   1_554  S
N16          C17   1.355       .  A
C17          N18   1.356       .  A
C17        C2909   1.484       .  S
C19          N20   1.360       .  A
C19          N24   1.355   1_556  A
C19        C2870   1.480       .  S
N20          C21   1.362   1_556  A
C21          N22   1.359       .  A
C21          C57   1.470   1_554  S
N22          C23   1.358       .  A
C23          N24   1.355       .  A
C23        C2846   1.475       .  S
C25          N26   1.356   1_545  A
C25          N30   1.357       .  A
C25        C2798   1.477       .  S
N26          C27   1.355       .  A
C27          N28   1.359       .  A
C27        C2822   1.480       .  S
N28          C29   1.359       .  A
C29          N30   1.359   1_565  A
C29          C75   1.467   1_554  S
C31          N32   1.358   1_545  A
C31          N36   1.363       .  A
C31        C2741   1.490       .  S
N32          C33   1.355       .  A
C33          N34   1.355       .  A
C33        C2774   1.476       .  S
N34          C35   1.358       .  A
C35          N36   1.364   1_565  A
C35          C93   1.471       .  S
C37          N38   1.359       .  A
C37          N42   1.357       .  A
C37        C2717   1.478       .  S
N38          C39   1.359       .  A
C39          N40   1.357   1_565  A
C39          C87   1.464   1_556  S
N40          C41   1.355       .  A
C41          N42   1.356   1_545  A
C41        C2693   1.466       .  S
C43          N44   1.354       .  A
C43          N48   1.357       .  A
C43        C2669   1.480       .  S
N44          C45   1.356       .  A
C45          N46   1.360   1_565  A
C45          C83   1.465       .  S
N46          C47   1.360       .  A
C47          N48   1.358   1_545  A
C47        C2645   1.480       .  S
C49          N50   1.358       .  A
C49          N54   1.355   1_554  A
C49        C2597   1.470       .  S
N50          C51   1.358       .  A
C51          N52   1.361   1_554  A
N52          C53   1.358       .  A
C53          N54   1.356       .  A
C53        C2630   1.485       .  S
C55          N56   1.360       .  A
C55          N60   1.357   1_554  A
C55        C2549   1.483       .  S
N56          C57   1.361   1_554  A
C57          N58   1.358       .  A
N58          C59   1.357       .  A
C59          N60   1.358       .  A
C59        C2573   1.478       .  S
C61          N62   1.354       .  A
C61          N66   1.358       .  A
C61        C2534   1.473       .  S
N62          C63   1.356       .  A
C63          N64   1.360   1_556  A
N64          C65   1.360       .  A
C65          N66   1.359   1_554  A
C65        C2501   1.475       .  S
C67          N68   1.355   1_556  A
C67          N72   1.356       .  A
C67        C2477   1.470       .  S
N68          C69   1.356       .  A
C69          N70   1.358       .  A
C69        C2462   1.480       .  S
N70          C71   1.358       .  A
C71          N72   1.358   1_554  A
C73          N74   1.359       .  A
C73          N78   1.355   1_545  A
C73        C2405   1.484       .  S
N74          C75   1.361   1_545  A
C75          N76   1.360       .  A
N76          C77   1.357       .  A
C77          N78   1.354       .  A
C77        C2429   1.474       .  S
C79          N80   1.356   1_545  A
C79          N84   1.359       .  A
C79        C2357   1.477       .  S
N80          C81   1.355       .  A
C81          N82   1.357       .  A
C81        C2390   1.478       .  S
N82          C83   1.360       .  A
C83          N84   1.359   1_565  A
C85          N86   1.357       .  A
C85          N90   1.356   1_545  A
C85        C2309   1.481       .  S
N86          C87   1.359   1_545  A
C87          N88   1.357       .  A
N88          C89   1.356       .  A
C89          N90   1.357       .  A
C89        C2333   1.485       .  S
C91          N92   1.357       .  A
C91          N96   1.358       .  A
C91        C2285   1.481       .  S
N92          C93   1.360       .  A
C93          N94   1.359   1_565  A
N94          C95   1.360       .  A
C95          N96   1.360   1_545  A
C95        C2270   1.486       .  S
C97          N98   1.356       .  A
C97         N102   1.356       .  A
C97        C2237   1.472       .  S
N98          C99   1.357       .  A
C99         N100   1.358       .  A
C99        C2222   1.481       .  S
N100        C101   1.359       .  A
C101        N102   1.357       .  A
C101        C111   1.464   1_545  S
C103        N104   1.356       .  A
C103        N108   1.358       .  A
C103       C2189   1.478       .  S
N104        C105   1.358       .  A
C105        N106   1.359       .  A
C105        C141   1.466       .  S
N106        C107   1.359       .  A
C107        N108   1.359       .  A
C107       C2165   1.485       .  S
C109        N110   1.356       .  A
C109        N114   1.356       .  A
C109       C2126   1.479       .  S
N110        C111   1.358       .  A
C111        N112   1.361       .  A
N112        C113   1.359       .  A
C113        N114   1.356       .  A
C113       C2150   1.482       .  S
C115        N116   1.356       .  A
C115        N120   1.358       .  A
C115       C2093   1.478       .  S
N116        C117   1.357       .  A
C117        N118   1.360       .  A
C117        C131   1.466       .  S
N118        C119   1.360       .  A
C119        N120   1.360       .  A
C119       C2069   1.485       .  S
C121        N122   1.357       .  A
C121        N126   1.356       .  A
C121       C2045   1.472       .  S
N122        C123   1.359       .  A
C123        N124   1.360       .  A
C123       C2021   1.491       .  S
N124        C125   1.360       .  A
C125        N126   1.357       .  A
C125        C135   1.469   1_565  S
C127        N128   1.357       .  A
C127        N132   1.359       .  A
C127       C1997   1.483       .  S
N128        C129   1.355       .  A
C129        N130   1.357       .  A
C129       C1982   1.480       .  S
N130        C131   1.360       .  A
C131        N132   1.359       .  A
C133        N134   1.358       .  A
C133        N138   1.357       .  A
C133       C1958   1.483       .  S
N134        C135   1.360       .  A
C135        N136   1.362       .  A
N136        C137   1.359       .  A
C137        N138   1.357       .  A
C137       C1934   1.483       .  S
C139        N140   1.358       .  A
C139        N144   1.356       .  A
C139       C1886   1.475       .  S
N140        C141   1.359       .  A
C141        N142   1.359       .  A
N142        C143   1.357       .  A
C143        N144   1.357       .  A
C143       C1910   1.479       .  S
C145        N146   1.357       .  A
C145        N150   1.356       .  A
C145       C1862   1.471       .  S
N146        C147   1.357       .  A
C147        N148   1.357       .  A
C147       C1829   1.467       .  S
N148        C149   1.358       .  A
C149        N150   1.358       .  A
C149        C293   1.463       .  S
C151        N152   1.355       .  A
C151        N156   1.357       .  A
C151       C1805   1.473       .  S
N152        C153   1.356       .  A
C153        N154   1.359       .  A
C153       C1790   1.479       .  S
N154        C155   1.360       .  A
C155        N156   1.358       .  A
C155        C365   1.468       .  S
O157       Zr193   2.431       .  S
O157        C168   1.291       .  A
O158       Zr192   2.448       .  S
O158        C169   1.294       .  A
O159       Zr165   2.435       .  S
O159        C170   1.291       .  A
O160       Zr165   2.440       .  S
O160        C171   1.293       .  A
O161       Zr195   2.440       .  S
O161        C171   1.292       .  A
O162       Zr194   2.430       .  S
O162        C170   1.291       .  A
O163       Zr165   2.437       .  S
O163        C169   1.292       .  A
O164       Zr165   2.446       .  S
O164        C168   1.294       .  A
Zr165       O166   2.342       .  S
Zr165       O167   2.336       .  S
Zr165       O175   2.338       .  S
Zr165       O173   2.344       .  S
O166       Zr192   2.341       .  S
O166       Zr195   2.339       .  S
O167       Zr193   2.338       .  S
O167       Zr194   2.340       .  S
C168       C2981   1.481       .  S
C169       C2006   1.482       .  S
C170       C1781   1.469       .  S
C171       C2054   1.479       .  S
H172        O173   0.965       .  S
O173       Zr192   2.333       .  S
O173       Zr194   2.336       .  S
H174        O175   0.966       .  S
O175       Zr193   2.339       .  S
O175       Zr195   2.347       .  S
O176       Zr192   2.439       .  S
O176        C199   1.293       .  A
O177       Zr193   2.431       .  S
O177        C200   1.289       .  A
O178       Zr194   2.428       .  S
O178        C201   1.291       .  A
O179       Zr195   2.446       .  S
O179        C202   1.293       .  A
O180       Zr195   2.423       .  S
O180        C203   1.290       .  A
O181       Zr194   2.422       .  S
O181        C204   1.289       .  A
O182       Zr196   2.430       .  S
O182        C205   1.291       .  A
O183       Zr196   2.435       .  S
O183        C206   1.291       .  A
O184       Zr194   2.440       .  S
O184        C205   1.292       .  A
O185       Zr195   2.447       .  S
O185        C206   1.294       .  A
O186       Zr192   2.431       .  S
O186        C201   1.290       .  A
O187       Zr193   2.446       .  S
O187        C204   1.294       .  A
O188       Zr193   2.444       .  S
O188        C203   1.293       .  A
O189       Zr192   2.425       .  S
O189        C202   1.291       .  A
O190       Zr196   2.425       .  S
O190        C199   1.290       .  A
O191       Zr196   2.438       .  S
O191        C200   1.293       .  A
Zr192       O198   2.339       .  S
Zr192       O210   2.340       .  S
Zr193       O197   2.343       .  S
Zr193       O208   2.333       .  S
Zr194       O198   2.333       .  S
Zr194       O208   2.335       .  S
Zr195       O197   2.345       .  S
Zr195       O210   2.333       .  S
Zr196       O197   2.335       .  S
Zr196       O198   2.340       .  S
Zr196       O210   2.343       .  S
Zr196       O208   2.335       .  S
C199       C1733   1.468       .  S
C200       C1718   1.494       .  S
C201       C1838   1.476       .  S
C202       C1757   1.478       .  S
C203       C2342   1.471       .  S
C204       C2942   1.472       .  S
C205       C1694   1.477       .  S
C206       C2294   1.479       .  S
H207        O208   0.965       .  S
H209        O210   0.966       .  S
C211        N212   1.360       .  A
C211        N216   1.359       .  A
C211       C1661   1.483       .  S
N212        C213   1.360       .  A
C213        N214   1.362       .  A
C213        C603   1.474       .  S
N214        C215   1.360       .  A
C215        N216   1.359       .  A
C215       C1646   1.487       .  S
C217        N218   1.357       .  A
C217        N222   1.360       .  A
C217       C1613   1.482       .  S
N218        C219   1.355       .  A
C219        N220   1.359       .  A
C219       C1589   1.479       .  S
N220        C221   1.360       .  A
C221        N222   1.360       .  A
C221        C285   1.471   1_545  S
O223       Zr259   2.432       .  S
O223        C234   1.291       .  A
O224       Zr258   2.431       .  S
O224        C235   1.291       .  A
O225       Zr231   2.456       .  S
O225        C236   1.295       .  A
O226       Zr231   2.437       .  S
O226        C237   1.292       .  A
O227       Zr261   2.434       .  S
O227        C237   1.291       .  A
O228       Zr260   2.427       .  S
O228        C236   1.291       .  A
O229       Zr231   2.438       .  S
O229        C235   1.292       .  A
O230       Zr231   2.442       .  S
O230        C234   1.293       .  A
Zr231       O232   2.342       .  S
Zr231       O233   2.345       .  S
Zr231       O241   2.345       .  S
Zr231       O239   2.339       .  S
O232       Zr258   2.336       .  S
O232       Zr261   2.339       .  S
O233       Zr259   2.342       .  S
O233       Zr260   2.343       .  S
C234       C2702   1.483       .  S
C235       C2486   1.469       .  S
C236       C1517   1.487       .  S
C237       C2525   1.473       .  S
H238        O239   0.966       .  S
O239       Zr258   2.340       .  S
O239       Zr260   2.341       .  S
H240        O241   0.966       .  S
O241       Zr259   2.342       .  S
O241       Zr261   2.342       .  S
O242       Zr258   2.433       .  S
O242        C265   1.291       .  A
O243       Zr259   2.440       .  S
O243        C266   1.292       .  A
O244       Zr260   2.432       .  S
O244        C267   1.291       .  A
O245       Zr261   2.446       .  S
O245        C268   1.293       .  A
O246       Zr261   2.444       .  S
O246        C269   1.293       .  A
O247       Zr260   2.445       .  S
O247        C270   1.293       .  A
O248       Zr262   2.447       .  S
O248        C271   1.294       .  A
O249       Zr262   2.447       .  S
O249        C272   1.294       .  A
O250       Zr260   2.434       .  S
O250        C271   1.291       .  A
O251       Zr261   2.438       .  S
O251        C272   1.292       .  A
O252       Zr258   2.442       .  S
O252        C267   1.293       .  A
O253       Zr259   2.431       .  S
O253        C270   1.291       .  A
O254       Zr259   2.431       .  S
O254        C269   1.290       .  A
O255       Zr258   2.442       .  S
O255        C268   1.293       .  A
O256       Zr262   2.430       .  S
O256        C265   1.290       .  A
O257       Zr262   2.428       .  S
O257        C266   1.290       .  A
Zr258       O264   2.339       .  S
Zr258       O276   2.342       .  S
Zr259       O263   2.336       .  S
Zr259       O274   2.337       .  S
Zr260       O264   2.342       .  S
Zr260       O274   2.333       .  S
Zr261       O263   2.336       .  S
Zr261       O276   2.339       .  S
Zr262       O263   2.339       .  S
Zr262       O264   2.340       .  S
Zr262       O276   2.338       .  S
Zr262       O274   2.337       .  S
C265       C1550   1.463       .  S
C266       C1598   1.474       .  S
C267       C1493   1.474       .  S
C268       C1574   1.480       .  S
C269       C2213   1.477       .  S
C270       C2654   1.484       .  S
C271       C1637   1.483       .  S
C272       C2174   1.483       .  S
H273        O274   0.965       .  S
H275        O276   0.964       .  S
C277        N278   1.357       .  A
C277        N282   1.356       .  A
C277       C1742   1.473       .  S
N278        C279   1.357       .  A
C279        N280   1.361       .  A
C279        C437   1.468       .  S
N280        C281   1.359       .  A
C281        N282   1.357       .  A
C281       C1478   1.482       .  S
C283        N284   1.358       .  A
C283        N288   1.357       .  A
C283       C1445   1.486       .  S
N284        C285   1.360       .  A
C285        N286   1.362       .  A
N286        C287   1.360       .  A
C287        N288   1.356       .  A
C287       C1766   1.485       .  S
C289        N290   1.354       .  A
C289        N294   1.355       .  A
C289       C1541   1.472       .  S
N290        C291   1.356       .  A
C291        N292   1.358       .  A
C291       C1430   1.476       .  S
N292        C293   1.360       .  A
C293        N294   1.358       .  A
C295        N296   1.358       .  A
C295        N300   1.359       .  A
C295       C1565   1.490       .  S
N296        C297   1.358       .  A
C297        N298   1.359       .  A
C297       C1397   1.488       .  S
N298        C299   1.361       .  A
C299        N300   1.361       .  A
C299        C465   1.473       .  S
O301       Zr337   2.432       .  S
O301        C312   1.291       .  A
O302       Zr336   2.455       .  S
O302        C313   1.295       .  A
O303       Zr309   2.438       .  S
O303        C314   1.292       .  A
O304       Zr309   2.443       .  S
O304        C315   1.293       .  A
O305       Zr339   2.446       .  S
O305        C315   1.294       .  A
O306       Zr338   2.435       .  S
O306        C314   1.292       .  A
O307       Zr309   2.436       .  S
O307        C313   1.292       .  A
O308       Zr309   2.433       .  S
O308        C312   1.291       .  A
Zr309       O310   2.341       .  S
Zr309       O311   2.344       .  S
Zr309       O319   2.339       .  S
Zr309       O317   2.337       .  S
O310       Zr336   2.340       .  S
O310       Zr339   2.347       .  S
O311       Zr337   2.339       .  S
O311       Zr338   2.339       .  S
C312       C3014   1.469       .  S
C313       C2078   1.487       .  S
C314       C2117   1.481       .  S
C315       C1406   1.487       .  S
H316        O317   0.965       .  S
O317       Zr336   2.337       .  S
O317       Zr338   2.341       .  S
H318        O319   0.965       .  S
O319       Zr337   2.344       .  S
O319       Zr339   2.343       .  S
O320       Zr336   2.432       .  S
O320        C343   1.291       .  A
O321       Zr337   2.438       .  S
O321        C344   1.292       .  A
O322       Zr338   2.435       .  S
O322        C345   1.291       .  A
O323       Zr339   2.434       .  S
O323        C346   1.293       .  A
O324       Zr339   2.435       .  S
O324        C347   1.292       .  A
O325       Zr338   2.439       .  S
O325        C348   1.292       .  A
O326       Zr340   2.428       .  S
O326        C349   1.291       .  A
O327       Zr340   2.434       .  S
O327        C350   1.291       .  A
O328       Zr338   2.434       .  S
O328        C349   1.291       .  A
O329       Zr339   2.455       .  S
O329        C350   1.295       .  A
O330       Zr336   2.437       .  S
O330        C345   1.292       .  A
O331       Zr337   2.437       .  S
O331        C348   1.291       .  A
O332       Zr337   2.430       .  S
O332        C347   1.291       .  A
O333       Zr336   2.439       .  S
O333        C346   1.292       .  A
O334       Zr340   2.443       .  S
O334        C343   1.293       .  A
O335       Zr340   2.432       .  S
O335        C344   1.291       .  A
Zr336       O342   2.340       .  S
Zr336       O354   2.346       .  S
Zr337       O341   2.338       .  S
Zr337       O352   2.339       .  S
Zr338       O342   2.339       .  S
Zr338       O352   2.337       .  S
Zr339       O341   2.340       .  S
Zr339       O354   2.340       .  S
Zr340       O341   2.336       .  S
Zr340       O342   2.336       .  S
Zr340       O354   2.336       .  S
Zr340       O352   2.341       .  S
C343       C1469   1.480       .  S
C344       C1373   1.477       .  S
C345       C1454   1.475       .  S
C346       C1421   1.481       .  S
C347       C2966   1.476       .  S
C348       C2726   1.476       .  S
C349       C2678   1.479       .  S
C350       C1349   1.488       .  S
H351        O352   0.964       .  S
H353        O354   0.965       .  S
C355        N356   1.359       .  A
C355        N360   1.359       .  A
C355       C1301   1.486       .  S
N356        C357   1.360       .  A
C357        N358   1.359       .  A
C357       C1325   1.484       .  S
N358        C359   1.358       .  A
C359        N360   1.360       .  A
C359        C459   1.470       .  S
C361        N362   1.358       .  A
C361        N366   1.360       .  A
C361       C1262   1.493       .  S
N362        C363   1.357       .  A
C363        N364   1.359       .  A
C363       C1286   1.492       .  S
N364        C365   1.360       .  A
C365        N366   1.359       .  A
C367        N368   1.358       .  A
C367        N372   1.358       .  A
C367       C1238   1.482       .  S
N368        C369   1.357       .  A
C369        N370   1.357       .  A
C369       C1685   1.479       .  S
N370        C371   1.358       .  A
C371        N372   1.359       .  A
C371        C527   1.465       .  S
C373        N374   1.354       .  A
C373        N378   1.359       .  A
C373       C1205   1.474       .  S
N374        C375   1.353       .  A
C375        N376   1.358       .  A
C375       C1709   1.472       .  S
N376        C377   1.362       .  A
C377        N378   1.361       .  A
C377        C453   1.470   1_554  S
O379       Zr415   2.438       .  S
O379        C390   1.291       .  A
O380       Zr414   2.461       .  S
O380        C391   1.296       .  A
O381       Zr387   2.425       .  S
O381        C392   1.290       .  A
O382       Zr387   2.435       .  S
O382        C393   1.291       .  A
O383       Zr417   2.433       .  S
O383        C393   1.292       .  A
O384       Zr416   2.434       .  S
O384        C392   1.291       .  A
O385       Zr387   2.428       .  S
O385        C391   1.290       .  A
O386       Zr387   2.434       .  S
O386        C390   1.290       .  A
Zr387       O388   2.333       .  S
Zr387       O389   2.336       .  S
Zr387       O397   2.339       .  S
Zr387       O395   2.343       .  S
O388       Zr414   2.338       .  S
O388       Zr417   2.339       .  S
O389       Zr415   2.333       .  S
O389       Zr416   2.338       .  S
C390       C2813   1.466       .  S
C391       C2558   1.481       .  S
C392       C2606   1.470       .  S
C393       C1214   1.480       .  S
H394        O395   0.966       .  S
O395       Zr414   2.334       .  S
O395       Zr416   2.344       .  S
H396        O397   0.966       .  S
O397       Zr415   2.347       .  S
O397       Zr417   2.345       .  S
O398       Zr414   2.438       .  S
O398        C421   1.292       .  A
O399       Zr415   2.437       .  S
O399        C422   1.291       .  A
O400       Zr416   2.438       .  S
O400        C423   1.291       .  A
O401       Zr417   2.439       .  S
O401        C424   1.293       .  A
O402       Zr417   2.446       .  S
O402        C425   1.293       .  A
O403       Zr416   2.432       .  S
O403        C426   1.291       .  A
O404       Zr418   2.418       .  S
O404        C427   1.288       .  A
O405       Zr418   2.437       .  S
O405        C428   1.292       .  A
O406       Zr416   2.442       .  S
O406        C427   1.294       .  A
O407       Zr417   2.438       .  S
O407        C428   1.292       .  A
O408       Zr414   2.446       .  S
O408        C423   1.293       .  A
O409       Zr415   2.445       .  S
O409        C426   1.292       .  A
O410       Zr415   2.426       .  S
O410        C425   1.291       .  A
O411       Zr414   2.434       .  S
O411        C424   1.291       .  A
O412       Zr418   2.447       .  S
O412        C421   1.294       .  A
O413       Zr418   2.447       .  S
O413        C422   1.294       .  A
Zr414       O420   2.338       .  S
Zr414       O432   2.355       .  S
Zr415       O419   2.339       .  S
Zr415       O430   2.341       .  S
Zr416       O420   2.333       .  S
Zr416       O430   2.344       .  S
Zr417       O419   2.335       .  S
Zr417       O432   2.343       .  S
Zr418       O419   2.330       .  S
Zr418       O420   2.342       .  S
Zr418       O432   2.341       .  S
Zr418       O430   2.347       .  S
C421       C1310   1.486       .  S
C422       C1181   1.484       .  S
C423       C1253   1.472       .  S
C424       C1229   1.477       .  S
C425       C2765   1.478       .  S
C426       C2030   1.471       .  S
C427       C1973   1.474       .  S
C428       C1157   1.479       .  S
H429        O430   0.966       .  S
H431        O432   0.966       .  S
C433        N434   1.354       .  A
C433        N438   1.357       .  A
C433       C1142   1.477       .  S
N434        C435   1.354       .  A
C435        N436   1.360       .  A
C435       C1166   1.483       .  S
N436        C437   1.362       .  A
C437        N438   1.359       .  A
C439        N440   1.359       .  A
C439        N444   1.357       .  A
C439       C1118   1.486       .  S
N440        C441   1.358       .  A
C441        N442   1.360       .  A
C441       C1190   1.490       .  S
N442        C443   1.360       .  A
C443        N444   1.359       .  A
C443        C611   1.469   1_565  S
C445        N446   1.356       .  A
C445        N450   1.359       .  A
C445       C1085   1.482       .  S
N446        C447   1.357       .  A
C447        N448   1.360       .  A
C447       C1358   1.485       .  S
N448        C449   1.362       .  A
C449        N450   1.361       .  A
C449        C591   1.473       .  S
C451        N452   1.359       .  A
C451        N456   1.356       .  A
C451       C1382   1.481       .  S
N452        C453   1.360       .  A
C453        N454   1.360       .  A
N454        C455   1.358       .  A
C455        N456   1.356       .  A
C455       C1070   1.474       .  S
C457        N458   1.356       .  A
C457        N462   1.355       .  A
C457       C1046   1.478       .  S
N458        C459   1.357       .  A
C459        N460   1.363       .  A
N460        C461   1.362       .  A
C461        N462   1.355       .  A
C461       C1013   1.484       .  S
C463        N464   1.362       .  A
C463        N468   1.361       .  A
C463        C998   1.490       .  S
N464        C465   1.360       .  A
C465        N466   1.358       .  A
N466        C467   1.357       .  A
C467        N468   1.360       .  A
C467        C965   1.476       .  S
O469       Zr505   2.424       .  S
O469        C480   1.290       .  A
O470       Zr504   2.431       .  S
O470        C481   1.291       .  A
O471       Zr477   2.435       .  S
O471        C482   1.291       .  A
O472       Zr477   2.434       .  S
O472        C483   1.292       .  A
O473       Zr507   2.437       .  S
O473        C483   1.292       .  A
O474       Zr506   2.449       .  S
O474        C482   1.294       .  A
O475       Zr477   2.433       .  S
O475        C481   1.291       .  A
O476       Zr477   2.441       .  S
O476        C480   1.293       .  A
Zr477       O478   2.341       .  S
Zr477       O479   2.340       .  S
Zr477       O487   2.339       .  S
Zr477       O485   2.338       .  S
O478       Zr504   2.339       .  S
O478       Zr507   2.339       .  S
O479       Zr505   2.338       .  S
O479       Zr506   2.332       .  S
C480       C2621   1.474       .  S
C481       C2102   1.467       .  S
C482        C989   1.473       .  S
C483       C2141   1.481       .  S
H484        O485   0.966       .  S
O485       Zr504   2.347       .  S
O485       Zr506   2.344       .  S
H486        O487   0.966       .  S
O487       Zr505   2.341       .  S
O487       Zr507   2.339       .  S
O488       Zr504   2.431       .  S
O488        C511   1.292       .  A
O489       Zr505   2.440       .  S
O489        C512   1.292       .  A
O490       Zr506   2.420       .  S
O490        C513   1.289       .  A
O491       Zr507   2.437       .  S
O491        C514   1.291       .  A
O492       Zr507   2.437       .  S
O492        C515   1.292       .  A
O493       Zr506   2.442       .  S
O493        C516   1.293       .  A
O494       Zr508   2.436       .  S
O494        C517   1.292       .  A
O495       Zr508   2.440       .  S
O495        C518   1.292       .  A
O496       Zr506   2.440       .  S
O496        C517   1.293       .  A
O497       Zr507   2.432       .  S
O497        C518   1.292       .  A
O498       Zr504   2.443       .  S
O498        C513   1.293       .  A
O499       Zr505   2.429       .  S
O499        C516   1.290       .  A
O500       Zr505   2.424       .  S
O500        C515   1.289       .  A
O501       Zr504   2.453       .  S
O501        C514   1.295       .  A
O502       Zr508   2.436       .  S
O502        C511   1.291       .  A
O503       Zr508   2.424       .  S
O503        C512   1.290       .  A
Zr504       O510   2.341       .  S
Zr504       O522   2.335       .  S
Zr505       O509   2.337       .  S
Zr505       O520   2.330       .  S
Zr506       O510   2.346       .  S
Zr506       O520   2.336       .  S
Zr507       O509   2.341       .  S
Zr507       O522   2.340       .  S
Zr508       O509   2.340       .  S
Zr508       O510   2.336       .  S
Zr508       O522   2.332       .  S
Zr508       O520   2.337       .  S
C511       C1133   1.478       .  S
C512       C1061   1.470       .  S
C513       C1037   1.471       .  S
C514       C1109   1.476       .  S
C515       C2438   1.471       .  S
C516       C2582   1.480       .  S
C517       C1094   1.480       .  S
C518       C2381   1.476       .  S
H519        O520   0.966       .  S
H521        O522   0.964       .  S
C523        N524   1.354       .  A
C523        N528   1.358       .  A
C523        C917   1.477       .  S
N524        C525   1.356       .  A
C525        N526   1.356       .  A
C525        C941   1.481       .  S
N526        C527   1.358       .  A
C527        N528   1.360       .  A
C529        N530   1.358       .  A
C529        N534   1.357       .  A
C529        C893   1.480       .  S
N530        C531   1.360       .  A
C531        N532   1.359       .  A
C531        C599   1.467   1_554  S
N532        C533   1.358       .  A
C533        N534   1.357       .  A
C533        C878   1.474       .  S
O535       Zr571   2.437       .  S
O535        C546   1.292       .  A
O536       Zr570   2.439       .  S
O536        C547   1.292       .  A
O537       Zr543   2.441       .  S
O537        C548   1.292       .  A
O538       Zr543   2.432       .  S
O538        C549   1.291       .  A
O539       Zr573   2.447       .  S
O539        C549   1.294       .  A
O540       Zr572   2.447       .  S
O540        C548   1.293       .  A
O541       Zr543   2.421       .  S
O541        C547   1.289       .  A
O542       Zr543   2.421       .  S
O542        C546   1.288       .  A
Zr543       O544   2.339       .  S
Zr543       O545   2.337       .  S
Zr543       O553   2.334       .  S
Zr543       O551   2.331       .  S
O544       Zr570   2.346       .  S
O544       Zr573   2.340       .  S
O545       Zr571   2.340       .  S
O545       Zr572   2.340       .  S
C546       C2885   1.471       .  S
C547       C1901   1.475       .  S
C548       C1277   1.471       .  S
C549       C1949   1.486       .  S
H550        O551   0.965       .  S
O551       Zr570   2.331       .  S
O551       Zr572   2.339       .  S
H552        O553   0.965       .  S
O553       Zr571   2.338       .  S
O553       Zr573   2.338       .  S
O554       Zr570   2.437       .  S
O554        C577   1.293       .  A
O555       Zr571   2.445       .  S
O555        C578   1.293       .  A
O556       Zr572   2.445       .  S
O556        C579   1.294       .  A
O557       Zr573   2.438       .  S
O557        C580   1.292       .  A
O558       Zr573   2.436       .  S
O558        C581   1.292       .  A
O559       Zr572   2.444       .  S
O559        C582   1.293       .  A
O560       Zr574   2.431       .  S
O560        C583   1.291       .  A
O561       Zr574   2.453       .  S
O561        C584   1.295       .  A
O562       Zr572   2.444       .  S
O562        C583   1.294       .  A
O563       Zr573   2.431       .  S
O563        C584   1.292       .  A
O564       Zr570   2.458       .  S
O564        C579   1.295       .  A
O565       Zr571   2.432       .  S
O565        C582   1.292       .  A
O566       Zr571   2.441       .  S
O566        C581   1.292       .  A
O567       Zr570   2.436       .  S
O567        C580   1.292       .  A
O568       Zr574   2.452       .  S
O568        C577   1.294       .  A
O569       Zr574   2.436       .  S
O569        C578   1.292       .  A
Zr570       O576   2.345       .  S
Zr570       O588   2.345       .  S
Zr571       O575   2.338       .  S
Zr571       O586   2.342       .  S
Zr572       O576   2.347       .  S
Zr572       O586   2.349       .  S
Zr573       O575   2.338       .  S
Zr573       O588   2.344       .  S
Zr574       O575   2.339       .  S
Zr574       O576   2.350       .  S
Zr574       O588   2.335       .  S
Zr574       O586   2.348       .  S
C577        C821   1.483       .  S
C578        C902   1.482       .  S
C579       C1334   1.486       .  S
C580        C854   1.474       .  S
C581       C2789   1.479       .  S
C582       C2837   1.488       .  S
C583        C950   1.473       .  S
C584       C2750   1.486       .  S
H585        O586   0.966       .  S
H587        O588   0.965       .  S
C589        N590   1.359       .  A
C589        N594   1.358       .  A
C589       C1502   1.492       .  S
N590        C591   1.361       .  A
C591        N592   1.362       .  A
N592        C593   1.360       .  A
C593        N594   1.355       .  A
C593        C797   1.484       .  S
C595        N596   1.357       .  A
C595        N600   1.359       .  A
C595       C1526   1.480       .  S
N596        C597   1.356       .  A
C597        N598   1.356       .  A
C597        C782   1.474       .  S
N598        C599   1.357       .  A
C599        N600   1.360       .  A
C601        N602   1.358       .  A
C601        N606   1.358       .  A
C601        C749   1.479       .  S
N602        C603   1.359       .  A
C603        N604   1.362       .  A
N604        C605   1.362       .  A
C605        N606   1.359       .  A
C605        C830   1.486       .  S
C607        N608   1.362       .  A
C607        N612   1.358       .  A
C607        C845   1.494       .  S
N608        C609   1.359       .  A
C609        N610   1.357       .  A
C609        C734   1.484       .  S
N610        C611   1.358       .  A
C611        N612   1.358       .  A
O613       Zr649   2.429       .  S
O613        C624   1.291       .  A
O614       Zr648   2.433       .  S
O614        C625   1.291       .  A
O615       Zr621   2.430       .  S
O615        C626   1.291       .  A
O616       Zr621   2.434       .  S
O616        C627   1.291       .  A
O617       Zr651   2.451       .  S
O617        C627   1.295       .  A
O618       Zr650   2.429       .  S
O618        C626   1.290       .  A
O619       Zr621   2.438       .  S
O619        C625   1.292       .  A
O620       Zr621   2.437       .  S
O620        C624   1.292       .  A
Zr621       O622   2.331       .  S
Zr621       O623   2.338       .  S
Zr621       O631   2.347       .  S
Zr621       O629   2.340       .  S
O622       Zr648   2.335       .  S
O622       Zr651   2.338       .  S
O623       Zr649   2.339       .  S
O623       Zr650   2.335       .  S
C624       C2918   1.471       .  S
C625       C2198   1.474       .  S
C626       C2246   1.472       .  S
C627        C974   1.485       .  S
H628        O629   0.965       .  S
O629       Zr648   2.342       .  S
O629       Zr650   2.336       .  S
H630        O631   0.966       .  S
O631       Zr649   2.346       .  S
O631       Zr651   2.337       .  S
O632       Zr648   2.432       .  S
O632        C655   1.291       .  A
O633       Zr649   2.442       .  S
O633        C656   1.293       .  A
O634       Zr650   2.435       .  S
O634        C657   1.291       .  A
O635       Zr651   2.424       .  S
O635        C658   1.290       .  A
O636       Zr651   2.446       .  S
O636        C659   1.293       .  A
O637       Zr650   2.440       .  S
O637        C660   1.292       .  A
O638       Zr652   2.442       .  S
O638        C661   1.293       .  A
O639       Zr652   2.439       .  S
O639        C662   1.293       .  A
O640       Zr650   2.422       .  S
O640        C661   1.289       .  A
O641       Zr651   2.443       .  S
O641        C662   1.293       .  A
O642       Zr648   2.449       .  S
O642        C657   1.294       .  A
O643       Zr649   2.433       .  S
O643        C660   1.291       .  A
O644       Zr649   2.431       .  S
O644        C659   1.291       .  A
O645       Zr648   2.453       .  S
O645        C658   1.296       .  A
O646       Zr652   2.442       .  S
O646        C655   1.292       .  A
O647       Zr652   2.427       .  S
O647        C656   1.290       .  A
Zr648       O654   2.336       .  S
Zr648       O666   2.344       .  S
Zr649       O653   2.335       .  S
Zr649       O664   2.339       .  S
Zr650       O654   2.338       .  S
Zr650       O664   2.336       .  S
Zr651       O653   2.338       .  S
Zr651       O666   2.350       .  S
Zr652       O653   2.341       .  S
Zr652       O654   2.331       .  S
Zr652       O666   2.345       .  S
Zr652       O664   2.345       .  S
C655        C758   1.471       .  S
C656        C773   1.474       .  S
C657        C725   1.478       .  S
C658       C1022   1.481       .  S
C659       C2861   1.484       .  S
C660       C2414   1.474       .  S
C661       C2366   1.472       .  S
C662        C806   1.476       .  S
H663        O664   0.966       .  S
H665        O666   0.966       .  S
O667       Zr703   2.426       .  S
O667        C678   1.290       .  A
O668       Zr702   2.451       .  S
O668        C679   1.295       .  A
O669       Zr675   2.443       .  S
O669        C680   1.293       .  A
O670       Zr675   2.428       .  S
O670        C681   1.291       .  A
O671       Zr705   2.434       .  S
O671        C681   1.290       .  A
O672       Zr704   2.439       .  S
O672        C680   1.293       .  A
O673       Zr675   2.430       .  S
O673        C679   1.291       .  A
O674       Zr675   2.451       .  S
O674        C678   1.295       .  A
Zr675       O676   2.341       .  S
Zr675       O677   2.330       .  S
Zr675       O685   2.341       .  S
Zr675       O683   2.346       .  S
O676       Zr702   2.331       .  S
O676       Zr705   2.333       .  S
O677       Zr703   2.338       .  S
O677       Zr704   2.339       .  S
C678       C2510   1.481       .  S
C679       C1877   1.489       .  S
C680       C1925   1.484       .  S
C681       C1814   1.487       .  S
H682        O683   0.966       .  S
O683       Zr702   2.346       .  S
O683       Zr704   2.343       .  S
H684        O685   0.966       .  S
O685       Zr703   2.337       .  S
O685       Zr705   2.342       .  S
O686       Zr702   2.442       .  S
O686        C709   1.293       .  A
O687       Zr703   2.424       .  S
O687        C710   1.289       .  A
O688       Zr704   2.443       .  S
O688        C711   1.293       .  A
O689       Zr705   2.428       .  S
O689        C712   1.290       .  A
O690       Zr705   2.421       .  S
O690        C713   1.289       .  A
O691       Zr704   2.429       .  S
O691        C714   1.291       .  A
O692       Zr706   2.435       .  S
O692        C715   1.291       .  A
O693       Zr706   2.433       .  S
O693        C716   1.291       .  A
O694       Zr704   2.444       .  S
O694        C715   1.294       .  A
O695       Zr705   2.438       .  S
O695        C716   1.291       .  A
O696       Zr702   2.429       .  S
O696        C711   1.291       .  A
O697       Zr703   2.441       .  S
O697        C714   1.292       .  A
O698       Zr703   2.449       .  S
O698        C713   1.294       .  A
O699       Zr702   2.434       .  S
O699        C712   1.291       .  A
O700       Zr706   2.439       .  S
O700        C709   1.293       .  A
O701       Zr706   2.450       .  S
O701        C710   1.294       .  A
Zr702       O708   2.340       .  S
Zr702       O720   2.340       .  S
Zr703       O707   2.337       .  S
Zr703       O718   2.343       .  S
Zr704       O708   2.333       .  S
Zr704       O718   2.346       .  S
Zr705       O707   2.339       .  S
Zr705       O720   2.336       .  S
Zr706       O707   2.340       .  S
Zr706       O708   2.341       .  S
Zr706       O720   2.343       .  S
Zr706       O718   2.338       .  S
C709       C1670   1.487       .  S
C710        C869   1.474       .  S
C711       C1622   1.480       .  S
C712       C1853   1.471       .  S
C713       C2453   1.473       .  S
C714       C2318   1.470       .  S
C715       C2261   1.479       .  S
C716        C926   1.468       .  S
H717        O718   0.966       .  S
H719        O720   0.966       .  S
C721        C722   1.402       .  A
C721        C726   1.398       .  A
C721        H731   1.084       .  S
C722        C727   1.480       .  S
C722        C723   1.414       .  A
C723        C724   1.404       .  A
C723        S728   1.806       .  S
C724        C725   1.407       .  A
C724        H729   1.084       .  S
C725        C726   1.411       .  A
C726        S730   1.804       .  S
C727        C732   1.408       .  A
C727        C736   1.400       .  A
S728        H744   1.404       .  S
S730        H741   1.407       .  S
C732        C733   1.404       .  A
C732        S737   1.807       .  S
C733        C734   1.406       .  A
C733        H738   1.083       .  S
C734        C735   1.417       .  A
C735        C736   1.401       .  A
C735        S739   1.803       .  S
C736        H740   1.084       .  S
S737        H742   1.407       .  S
S739        H743   1.407       .  S
C745        C746   1.402       .  A
C745        C750   1.404       .  A
C745        H755   1.083       .  S
C746        C751   1.479       .  S
C746        C747   1.410       .  A
C747        C748   1.399       .  A
C747        S752   1.803       .  S
C748        C749   1.404       .  A
C748        H753   1.084       .  S
C749        C750   1.414       .  A
C750        S754   1.808       .  S
C751        C756   1.409       .  A
C751        C760   1.401       .  A
S752        H768   1.406       .  S
S754        H765   1.407       .  S
C756        C757   1.403       .  A
C756        S761   1.804       .  S
C757        C758   1.404       .  A
C757        H762   1.083       .  S
C758        C759   1.412       .  A
C759        C760   1.397       .  A
C759        S763   1.802       .  S
C760        H764   1.084       .  S
S761        H766   1.407       .  S
S763        H767   1.404       .  S
C769        C770   1.399       .  A
C769        C774   1.394       .  A
C769        H779   1.084       .  S
C770        C775   1.472       .  S
C770        C771   1.411       .  A
C771        C772   1.400       .  A
C771        S776   1.804       .  S
C772        C773   1.405       .  A
C772        H777   1.084       .  S
C773        C774   1.415       .  A
C774        S778   1.804       .  S
C775        C780   1.407       .  A
C775        C784   1.400       .  A
S776        H792   1.404       .  S
S778        H789   1.405       .  S
C780        C781   1.400       .  A
C780        S785   1.806       .  S
C781        C782   1.404       .  A
C781        H786   1.083       .  S
C782        C783   1.415       .  A
C783        C784   1.398       .  A
C783        S787   1.802       .  S
C784        H788   1.084       .  S
S785        H790   1.407       .  S
S787        H791   1.406       .  S
C793        C794   1.399       .  A
C793        C798   1.396       .  A
C793        H803   1.084       .  S
C794        C799   1.480       .  S
C794        C795   1.414       .  A
C795        C796   1.405       .  A
C795        S800   1.806       .  S
C796        C797   1.406       .  A
C796        H801   1.084       .  S
C797        C798   1.417       .  A
C798        S802   1.804       .  S
C799        C804   1.409       .  A
C799        C808   1.403       .  A
S800        H816   1.403       .  S
S802        H813   1.407       .  S
C804        C805   1.403       .  A
C804        S809   1.806       .  S
C805        C806   1.404       .  A
C805        H810   1.083       .  S
C806        C807   1.414       .  A
C807        C808   1.401       .  A
C807        S811   1.805       .  S
C808        H812   1.084       .  S
S809        H814   1.407       .  S
S811        H815   1.405       .  S
C817        C818   1.404       .  A
C817        C822   1.405       .  A
C817        H827   1.084       .  S
C818        C823   1.484       .  S
C818        C819   1.412       .  A
C819        C820   1.398       .  A
C819        S824   1.805       .  S
C820        C821   1.405       .  A
C820        H825   1.084       .  S
C821        C822   1.416       .  A
C822        S826   1.804       .  S
C823        C828   1.409       .  A
C823        C832   1.402       .  A
S824        H840   1.404       .  S
S826        H837   1.406       .  S
C828        C829   1.404       .  A
C828        S833   1.807       .  S
C829        C830   1.406       .  A
C829        H834   1.083       .  S
C830        C831   1.416       .  A
C831        C832   1.404       .  A
C831        S835   1.801       .  S
C832        H836   1.084       .  S
S833        H838   1.407       .  S
S835        H839   1.407       .  S
C841        C842   1.400       .  A
C841        C846   1.403       .  A
C841        H851   1.084       .  S
C842        C847   1.479       .  S
C842        C843   1.409       .  A
C843        C844   1.396       .  A
C843        S848   1.805       .  S
C844        C845   1.408       .  A
C844        H849   1.083       .  S
C845        C846   1.423       .  A
C846        S850   1.800       .  S
C847        C852   1.410       .  A
C847        C856   1.402       .  A
S848        H864   1.406       .  S
S850        H861   1.408       .  S
C852        C853   1.400       .  A
C852        S857   1.807       .  S
C853        C854   1.403       .  A
C853        H858   1.083       .  S
C854        C855   1.416       .  A
C855        C856   1.400       .  A
C855        S859   1.805       .  S
C856        H860   1.084       .  S
S857        H862   1.406       .  S
S859        H863   1.406       .  S
C865        C866   1.402       .  A
C865        C870   1.399       .  A
C865        H875   1.084       .  S
C866        C871   1.476       .  S
C866        C867   1.410       .  A
C867        C868   1.399       .  A
C867        S872   1.804       .  S
C868        C869   1.405       .  A
C868        H873   1.084       .  S
C869        C870   1.414       .  A
C870        S874   1.806       .  S
C871        C876   1.408       .  A
C871        C880   1.400       .  A
S872        H888   1.405       .  S
S874        H885   1.403       .  S
C876        C877   1.404       .  A
C876        S881   1.806       .  S
C877        C878   1.405       .  A
C877        H882   1.083       .  S
C878        C879   1.414       .  A
C879        C880   1.397       .  A
C879        S883   1.804       .  S
C880        H884   1.084       .  S
S881        H886   1.407       .  S
S883        H887   1.407       .  S
C889        C890   1.402       .  A
C889        C894   1.403       .  A
C889        H899   1.084       .  S
C890        C895   1.479       .  S
C890        C891   1.411       .  A
C891        C892   1.396       .  A
C891        S896   1.805       .  S
C892        C893   1.404       .  A
C892        H897   1.084       .  S
C893        C894   1.416       .  A
C894        S898   1.802       .  S
C895        C900   1.408       .  A
C895        C904   1.402       .  A
S896        H912   1.405       .  S
S898        H909   1.407       .  S
C900        C901   1.400       .  A
C900        S905   1.808       .  S
C901        C902   1.406       .  A
C901        H906   1.083       .  S
C902        C903   1.416       .  A
C903        C904   1.402       .  A
C903        S907   1.802       .  S
C904        H908   1.084       .  S
S905        H910   1.407       .  S
S907        H911   1.407       .  S
C913        C914   1.400       .  A
C913        C918   1.396       .  A
C913        H923   1.084       .  S
C914        C919   1.475       .  S
C914        C915   1.411       .  A
C915        C916   1.400       .  A
C915        S920   1.804       .  S
C916        C917   1.405       .  A
C916        H921   1.084       .  S
C917        C918   1.416       .  A
C918        S922   1.804       .  S
C919        C924   1.408       .  A
C919        C928   1.402       .  A
S920        H936   1.405       .  S
S922        H933   1.407       .  S
C924        C925   1.400       .  A
C924        S929   1.805       .  S
C925        C926   1.401       .  A
C925        H930   1.083       .  S
C926        C927   1.410       .  A
C927        C928   1.401       .  A
C927        S931   1.805       .  S
C928        H932   1.083       .  S
S929        H934   1.407       .  S
S931        H935   1.407       .  S
C937        C938   1.400       .  A
C937        C942   1.399       .  A
C937        H947   1.084       .  S
C938        C943   1.471       .  S
C938        C939   1.408       .  A
C939        C940   1.393       .  A
C939        S944   1.806       .  S
C940        C941   1.407       .  A
C940        H945   1.084       .  S
C941        C942   1.419       .  A
C942        S946   1.802       .  S
C943        C948   1.409       .  A
C943        C952   1.396       .  A
S944        H960   1.405       .  S
S946        H957   1.407       .  S
C948        C949   1.401       .  A
C948        S953   1.806       .  S
C949        C950   1.404       .  A
C949        H954   1.083       .  S
C950        C951   1.411       .  A
C951        C952   1.394       .  A
C951        S955   1.788       .  S
C952        H956   1.084       .  S
S953        H958   1.407       .  S
S955        H959   1.406       .  S
C961        C962   1.403       .  A
C961        C966   1.401       .  A
C961        H971   1.084       .  S
C962        C967   1.482       .  S
C962        C963   1.413       .  A
C963        C964   1.400   1_655  A
C963        S968   1.804   1_655  S
C964        C965   1.403       .  A
C964        H969   1.084       .  S
C965        C966   1.413   1_455  A
C966        S970   1.802       .  S
C967        C972   1.409       .  A
C967        C976   1.402       .  A
S968        H984   1.405   1_455  S
S970        H981   1.406   1_655  S
C972        C973   1.401       .  A
C972        S977   1.808       .  S
C973        C974   1.403       .  A
C973        H978   1.076       .  S
C974        C975   1.418       .  A
C975        C976   1.402       .  A
C975        S979   1.804       .  S
C976        H980   1.084       .  S
S977        H982   1.406       .  S
S979        H983   1.406       .  S
C985        C986   1.404       .  A
C985        C990   1.401       .  A
C985        H995   1.084       .  S
C986        C991   1.483       .  S
C986        C987   1.414       .  A
C987        C988   1.401       .  A
C987        S992   1.804       .  S
C988        C989   1.403       .  A
C988        H993   1.084       .  S
C989        C990   1.411       .  A
C990        S994   1.803       .  S
C991        C996   1.408       .  A
C991       C1000   1.401       .  A
S992       H1008   1.405       .  S
S994       H1005   1.406       .  S
C996        C997   1.405   1_655  A
C996       S1001   1.805   1_655  S
C997        C998   1.409       .  A
C997       H1002   1.083       .  S
C998        C999   1.418   1_455  A
C999       C1000   1.401       .  A
C999       S1003   1.800       .  S
C1000      H1004   1.084       .  S
S1001      H1006   1.407       .  S
S1003      H1007   1.407       .  S
C1009      C1010   1.401       .  A
C1009      C1014   1.400       .  A
C1009      H1019   1.084       .  S
C1010      C1015   1.477       .  S
C1010      C1011   1.409       .  A
C1011      C1012   1.398       .  A
C1011      S1016   1.805       .  S
C1012      C1013   1.409       .  A
C1012      H1017   1.084       .  S
C1013      C1014   1.416       .  A
C1014      S1018   1.801       .  S
C1015      C1020   1.406       .  A
C1015      C1024   1.400       .  A
S1016      H1032   1.406       .  S
S1018      H1029   1.407       .  S
C1020      C1021   1.402       .  A
C1020      S1025   1.804       .  S
C1021      C1022   1.404       .  A
C1021      H1026   1.080       .  S
C1022      C1023   1.418       .  A
C1023      C1024   1.398       .  A
C1023      S1027   1.801       .  S
C1024      H1028   1.084       .  S
S1025      H1030   1.407       .  S
S1027      H1031   1.405       .  S
C1033      C1034   1.401       .  A
C1033      C1038   1.394       .  A
C1033      H1043   1.084       .  S
C1034      C1039   1.474       .  S
C1034      C1035   1.412       .  A
C1035      C1036   1.399       .  A
C1035      S1040   1.804       .  S
C1036      C1037   1.404       .  A
C1036      H1041   1.084       .  S
C1037      C1038   1.414       .  A
C1038      S1042   1.806       .  S
C1039      C1044   1.408       .  A
C1039      C1048   1.400       .  A
S1040      H1056   1.406       .  S
S1042      H1053   1.407       .  S
C1044      C1045   1.399       .  A
C1044      S1049   1.809       .  S
C1045      C1046   1.406       .  A
C1045      H1050   1.083       .  S
C1046      C1047   1.416       .  A
C1047      C1048   1.397       .  A
C1047      S1051   1.802       .  S
C1048      H1052   1.084       .  S
S1049      H1054   1.407       .  S
S1051      H1055   1.407       .  S
C1057      C1058   1.400       .  A
C1057      C1062   1.395       .  A
C1057      H1067   1.084       .  S
C1058      C1063   1.474       .  S
C1058      C1059   1.413       .  A
C1059      C1060   1.400       .  A
C1059      S1064   1.805       .  S
C1060      C1061   1.403       .  A
C1060      H1065   1.084       .  S
C1061      C1062   1.414       .  A
C1062      S1066   1.806       .  S
C1063      C1068   1.407       .  A
C1063      C1072   1.402       .  A
S1064      H1080   1.404       .  S
S1066      H1077   1.405       .  S
C1068      C1069   1.399       .  A
C1068      S1073   1.807       .  S
C1069      C1070   1.404       .  A
C1069      H1074   1.083       .  S
C1070      C1071   1.414       .  A
C1071      C1072   1.400       .  A
C1071      S1075   1.803       .  S
C1072      H1076   1.084       .  S
S1073      H1078   1.407       .  S
S1075      H1079   1.406       .  S
C1081      C1082   1.403       .  A
C1081      C1086   1.403       .  A
C1081      H1091   1.084       .  S
C1082      C1087   1.480       .  S
C1082      C1083   1.410       .  A
C1083      C1084   1.398       .  A
C1083      S1088   1.805       .  S
C1084      C1085   1.405       .  A
C1084      H1089   1.084       .  S
C1085      C1086   1.416       .  A
C1086      S1090   1.802       .  S
C1087      C1092   1.408       .  A
C1087      C1096   1.401       .  A
S1088      H1104   1.406       .  S
S1090      H1101   1.407       .  S
C1092      C1093   1.405       .  A
C1092      S1097   1.805       .  S
C1093      C1094   1.407       .  A
C1093      H1098   1.083       .  S
C1094      C1095   1.415       .  A
C1095      C1096   1.398       .  A
C1095      S1099   1.805       .  S
C1096      H1100   1.084       .  S
S1097      H1102   1.407       .  S
S1099      H1103   1.407       .  S
C1105      C1106   1.401       .  A
C1105      C1110   1.397       .  A
C1105      H1115   1.084       .  S
C1106      C1111   1.479       .  S
C1106      C1107   1.413       .  A
C1107      C1108   1.403       .  A
C1107      S1112   1.804       .  S
C1108      C1109   1.404       .  A
C1108      H1113   1.084       .  S
C1109      C1110   1.413       .  A
C1110      S1114   1.802       .  S
C1111      C1116   1.406       .  A
C1111      C1120   1.402       .  A
S1112      H1128   1.404       .  S
S1114      H1125   1.405       .  S
C1116      C1117   1.400       .  A
C1116      S1121   1.807       .  S
C1117      C1118   1.406       .  A
C1117      H1122   1.082       .  S
C1118      C1119   1.419       .  A
C1119      C1120   1.403       .  A
C1119      S1123   1.803       .  S
C1120      H1124   1.084       .  S
S1121      H1126   1.406       .  S
S1123      H1127   1.407       .  S
C1129      C1130   1.402       .  A
C1129      C1134   1.401       .  A
C1129      H1139   1.084       .  S
C1130      C1135   1.477       .  S
C1130      C1131   1.410       .  A
C1131      C1132   1.395       .  A
C1131      S1136   1.804       .  S
C1132      C1133   1.405       .  A
C1132      H1137   1.084       .  S
C1133      C1134   1.418       .  A
C1134      S1138   1.804       .  S
C1135      C1140   1.409       .  A
C1135      C1144   1.400       .  A
S1136      H1152   1.407       .  S
S1138      H1149   1.405       .  S
C1140      C1141   1.404       .  A
C1140      S1145   1.806       .  S
C1141      C1142   1.406       .  A
C1141      H1146   1.083       .  S
C1142      C1143   1.415       .  A
C1143      C1144   1.394       .  A
C1143      S1147   1.805       .  S
C1144      H1148   1.084       .  S
S1145      H1150   1.407       .  S
S1147      H1151   1.408       .  S
C1153      C1154   1.401       .  A
C1153      C1158   1.397       .  A
C1153      H1163   1.084       .  S
C1154      C1159   1.477       .  S
C1154      C1155   1.412       .  A
C1155      C1156   1.402       .  A
C1155      S1160   1.805       .  S
C1156      C1157   1.405       .  A
C1156      H1161   1.084       .  S
C1157      C1158   1.415       .  A
C1158      S1162   1.804       .  S
C1159      C1164   1.407       .  A
C1159      C1168   1.402       .  A
S1160      H1176   1.404       .  S
S1162      H1173   1.407       .  S
C1164      C1165   1.400       .  A
C1164      S1169   1.808       .  S
C1165      C1166   1.407       .  A
C1165      H1170   1.083       .  S
C1166      C1167   1.416       .  A
C1167      C1168   1.402       .  A
C1167      S1171   1.801       .  S
C1168      H1172   1.084       .  S
S1169      H1174   1.407       .  S
S1171      H1175   1.408       .  S
C1177      C1178   1.403       .  A
C1177      C1182   1.403       .  A
C1177      H1187   1.084       .  S
C1178      C1183   1.484       .  S
C1178      C1179   1.412       .  A
C1179      C1180   1.398       .  A
C1179      S1184   1.805       .  S
C1180      C1181   1.404       .  A
C1180      H1185   1.084       .  S
C1181      C1182   1.418       .  A
C1182      S1186   1.803       .  S
C1183      C1188   1.409       .  A
C1183      C1192   1.401       .  A
S1184      H1200   1.406       .  S
S1186      H1197   1.406       .  S
C1188      C1189   1.406       .  A
C1188      S1193   1.805       .  S
C1189      C1190   1.409       .  A
C1189      H1194   1.082       .  S
C1190      C1191   1.419       .  A
C1191      C1192   1.398       .  A
C1191      S1195   1.803       .  S
C1192      H1196   1.084       .  S
S1193      H1198   1.407       .  S
S1195      H1199   1.407       .  S
C1201      C1202   1.403       .  A
C1201      C1206   1.402       .  A
C1201      H1211   1.084       .  S
C1202      C1207   1.474       .  S
C1202      C1203   1.410       .  A
C1203      C1204   1.394       .  A
C1203      S1208   1.806       .  S
C1204      C1205   1.403       .  A
C1204      H1209   1.084       .  S
C1205      C1206   1.414       .  A
C1206      S1210   1.803       .  S
C1207      C1212   1.407       .  A
C1207      C1216   1.400       .  A
S1208      H1224   1.404       .  S
S1210      H1221   1.407       .  S
C1212      C1213   1.400       .  A
C1212      S1217   1.806       .  S
C1213      C1214   1.406       .  A
C1213      H1218   1.083       .  S
C1214      C1215   1.417       .  A
C1215      C1216   1.399       .  A
C1215      S1219   1.803       .  S
C1216      H1220   1.084       .  S
S1217      H1222   1.406       .  S
S1219      H1223   1.405       .  S
C1225      C1226   1.403       .  A
C1225      C1230   1.402       .  A
C1225      H1235   1.084       .  S
C1226      C1231   1.478       .  S
C1226      C1227   1.410       .  A
C1227      C1228   1.395       .  A
C1227      S1232   1.803       .  S
C1228      C1229   1.403       .  A
C1228      H1233   1.084       .  S
C1229      C1230   1.417       .  A
C1230      S1234   1.805       .  S
C1231      C1236   1.407       .  A
C1231      C1240   1.400       .  A
S1232      H1248   1.406       .  S
S1234      H1245   1.407       .  S
C1236      C1237   1.405       .  A
C1236      S1241   1.805       .  S
C1237      C1238   1.408       .  A
C1237      H1242   1.082       .  S
C1238      C1239   1.415       .  A
C1239      C1240   1.396       .  A
C1239      S1243   1.803       .  S
C1240      H1244   1.084       .  S
S1241      H1246   1.407       .  S
S1243      H1247   1.407       .  S
C1249      C1250   1.405       .  A
C1249      C1254   1.402       .  A
C1249      H1259   1.084       .  S
C1250      C1255   1.489       .  S
C1250      C1251   1.415       .  A
C1251      C1252   1.398       .  A
C1251      S1256   1.804       .  S
C1252      C1253   1.401       .  A
C1252      H1257   1.084       .  S
C1253      C1254   1.414       .  A
C1254      S1258   1.807       .  S
C1255      C1260   1.410   1_655  A
C1255      C1264   1.401       .  A
S1256      H1272   1.407       .  S
S1258      H1269   1.404       .  S
C1260      C1261   1.407       .  A
C1260      S1265   1.807       .  S
C1261      C1262   1.410       .  A
C1261      H1266   1.082       .  S
C1262      C1263   1.420   1_455  A
C1263      C1264   1.400       .  A
C1263      S1267   1.809       .  S
C1264      H1268   1.083       .  S
S1265      H1270   1.407       .  S
S1267      H1271   1.407       .  S
C1273      C1274   1.408       .  A
C1273      C1278   1.402       .  A
C1273      H1283   1.084       .  S
C1274      C1279   1.493       .  S
C1274      C1275   1.415       .  A
C1275      C1276   1.400       .  A
C1275      S1280   1.804       .  S
C1276      C1277   1.403       .  A
C1276      H1281   1.084       .  S
C1277      C1278   1.412       .  A
C1278      S1282   1.809       .  S
C1279      C1284   1.413   1_655  A
C1279      C1288   1.404       .  A
S1280      H1296   1.407       .  S
S1282      H1293   1.402       .  S
C1284      C1285   1.405       .  A
C1284      S1289   1.808       .  S
C1285      C1286   1.408       .  A
C1285      H1290   1.082       .  S
C1286      C1287   1.418   1_455  A
C1287      C1288   1.400       .  A
C1287      S1291   1.804       .  S
C1288      H1292   1.084       .  S
S1289      H1294   1.407       .  S
S1291      H1295   1.408       .  S
C1297      C1298   1.403       .  A
C1297      C1302   1.404       .  A
C1297      H1307   1.084       .  S
C1298      C1303   1.484       .  S
C1298      C1299   1.412       .  A
C1299      C1300   1.399       .  A
C1299      S1304   1.805       .  S
C1300      C1301   1.405       .  A
C1300      H1305   1.084       .  S
C1301      C1302   1.418       .  A
C1302      S1306   1.802       .  S
C1303      C1308   1.409       .  A
C1303      C1312   1.400       .  A
S1304      H1320   1.406       .  S
S1306      H1317   1.407       .  S
C1308      C1309   1.407       .  A
C1308      S1313   1.805       .  S
C1309      C1310   1.407       .  A
C1309      H1314   1.083       .  S
C1310      C1311   1.416       .  A
C1311      C1312   1.401       .  A
C1311      S1315   1.808       .  S
C1312      H1316   1.083       .  S
S1313      H1318   1.407       .  S
S1315      H1319   1.406       .  S
C1321      C1322   1.402       .  A
C1321      C1326   1.400       .  A
C1321      H1331   1.084       .  S
C1322      C1327   1.480       .  S
C1322      C1323   1.411       .  A
C1323      C1324   1.400       .  A
C1323      S1328   1.803       .  S
C1324      C1325   1.406       .  A
C1324      H1329   1.084       .  S
C1325      C1326   1.417       .  A
C1326      S1330   1.803       .  S
C1327      C1332   1.405       .  A
C1327      C1336   1.403       .  A
S1328      H1344   1.404       .  S
S1330      H1341   1.407       .  S
C1332      C1333   1.399       .  A
C1332      S1337   1.809       .  S
C1333      C1334   1.401       .  A
C1333      H1338   1.070       .  S
C1334      C1335   1.417       .  A
C1335      C1336   1.405       .  A
C1335      S1339   1.803       .  S
C1336      H1340   1.084       .  S
S1337      H1342   1.404       .  S
S1339      H1343   1.405       .  S
C1345      C1346   1.401       .  A
C1345      C1350   1.398       .  A
C1345      H1355   1.084       .  S
C1346      C1351   1.483       .  S
C1346      C1347   1.412       .  A
C1347      C1348   1.404       .  A
C1347      S1352   1.804       .  S
C1348      C1349   1.407       .  A
C1348      H1353   1.084       .  S
C1349      C1350   1.419       .  A
C1350      S1354   1.804       .  S
C1351      C1356   1.408       .  A
C1351      C1360   1.403       .  A
S1352      H1368   1.405       .  S
S1354      H1365   1.407       .  S
C1356      C1357   1.401       .  A
C1356      S1361   1.807       .  S
C1357      C1358   1.407       .  A
C1357      H1362   1.083       .  S
C1358      C1359   1.417       .  A
C1359      C1360   1.404       .  A
C1359      S1363   1.802       .  S
C1360      H1364   1.084       .  S
S1361      H1366   1.407       .  S
S1363      H1367   1.407       .  S
C1369      C1370   1.400       .  A
C1369      C1374   1.396       .  A
C1369      H1379   1.084       .  S
C1370      C1375   1.477       .  S
C1370      C1371   1.411       .  A
C1371      C1372   1.401       .  A
C1371      S1376   1.803       .  S
C1372      C1373   1.405       .  A
C1372      H1377   1.084       .  S
C1373      C1374   1.415       .  A
C1374      S1378   1.805       .  S
C1375      C1380   1.408       .  A
C1375      C1384   1.400       .  A
S1376      H1392   1.406       .  S
S1378      H1389   1.407       .  S
C1380      C1381   1.401       .  A
C1380      S1385   1.807       .  S
C1381      C1382   1.407       .  A
C1381      H1386   1.083       .  S
C1382      C1383   1.416       .  A
C1383      C1384   1.400       .  A
C1383      S1387   1.801       .  S
C1384      H1388   1.084       .  S
S1385      H1390   1.407       .  S
S1387      H1391   1.407       .  S
C1393      C1394   1.404       .  A
C1393      C1398   1.404       .  A
C1393      H1403   1.084       .  S
C1394      C1399   1.486       .  S
C1394      C1395   1.411       .  A
C1395      C1396   1.398       .  A
C1395      S1400   1.804       .  S
C1396      C1397   1.406       .  A
C1396      H1401   1.084       .  S
C1397      C1398   1.417       .  A
C1398      S1402   1.800       .  S
C1399      C1404   1.410       .  A
C1399      C1408   1.403       .  A
S1400      H1416   1.406       .  S
S1402      H1413   1.408       .  S
C1404      C1405   1.406       .  A
C1404      S1409   1.806       .  S
C1405      C1406   1.408       .  A
C1405      H1410   1.083       .  S
C1406      C1407   1.416       .  A
C1407      C1408   1.400       .  A
C1407      S1411   1.804       .  S
C1408      H1412   1.084       .  S
S1409      H1414   1.407       .  S
S1411      H1415   1.408       .  S
C1417      C1418   1.400       .  A
C1417      C1422   1.399       .  A
C1417      H1427   1.084       .  S
C1418      C1423   1.474       .  S
C1418      C1419   1.411       .  A
C1419      C1420   1.396       .  A
C1419      S1424   1.806       .  S
C1420      C1421   1.406       .  A
C1420      H1425   1.084       .  S
C1421      C1422   1.417       .  A
C1422      S1426   1.800       .  S
C1423      C1428   1.407       .  A
C1423      C1432   1.402       .  A
S1424      H1440   1.404       .  S
S1426      H1437   1.407       .  S
C1428      C1429   1.397       .  A
C1428      S1433   1.808       .  S
C1429      C1430   1.404       .  A
C1429      H1434   1.082       .  S
C1430      C1431   1.415       .  A
C1431      C1432   1.401       .  A
C1431      S1435   1.802       .  S
C1432      H1436   1.084       .  S
S1433      H1438   1.407       .  S
S1435      H1439   1.407       .  S
C1441      C1442   1.402       .  A
C1441      C1446   1.403       .  A
C1441      H1451   1.084       .  S
C1442      C1447   1.479       .  S
C1442      C1443   1.409       .  A
C1443      C1444   1.396       .  A
C1443      S1448   1.804       .  S
C1444      C1445   1.407       .  A
C1444      H1449   1.084       .  S
C1445      C1446   1.419       .  A
C1446      S1450   1.802       .  S
C1447      C1452   1.409       .  A
C1447      C1456   1.402       .  A
S1448      H1464   1.406       .  S
S1450      H1461   1.407       .  S
C1452      C1453   1.405       .  A
C1452      S1457   1.805       .  S
C1453      C1454   1.406       .  A
C1453      H1458   1.083       .  S
C1454      C1455   1.413       .  A
C1455      C1456   1.396       .  A
C1455      S1459   1.805       .  S
C1456      H1460   1.084       .  S
S1457      H1462   1.407       .  S
S1459      H1463   1.407       .  S
C1465      C1466   1.401       .  A
C1465      C1470   1.397       .  A
C1465      H1475   1.084       .  S
C1466      C1471   1.478       .  S
C1466      C1467   1.413       .  A
C1467      C1468   1.401       .  A
C1467      S1472   1.806       .  S
C1468      C1469   1.406       .  A
C1468      H1473   1.084       .  S
C1469      C1470   1.416       .  A
C1470      S1474   1.805       .  S
C1471      C1476   1.409       .  A
C1471      C1480   1.399       .  A
S1472      H1488   1.403       .  S
S1474      H1485   1.407       .  S
C1476      C1477   1.406       .  A
C1476      S1481   1.806       .  S
C1477      C1478   1.407       .  A
C1477      H1482   1.083       .  S
C1478      C1479   1.416       .  A
C1479      C1480   1.396       .  A
C1479      S1483   1.803       .  S
C1480      H1484   1.084       .  S
S1481      H1486   1.407       .  S
S1483      H1487   1.407       .  S
C1489      C1490   1.403       .  A
C1489      C1494   1.397       .  A
C1489      H1499   1.084       .  S
C1490      C1495   1.480       .  S
C1490      C1491   1.410       .  A
C1491      C1492   1.401       .  A
C1491      S1496   1.802       .  S
C1492      C1493   1.405       .  A
C1492      H1497   1.084       .  S
C1493      C1494   1.414       .  A
C1494      S1498   1.806       .  S
C1495      C1500   1.406       .  A
C1495      C1504   1.401       .  A
S1496      H1512   1.406       .  S
S1498      H1509   1.407       .  S
C1500      C1501   1.399       .  A
C1500      S1505   1.808       .  S
C1501      C1502   1.409       .  A
C1501      H1506   1.082       .  S
C1502      C1503   1.421       .  A
C1503      C1504   1.403       .  A
C1503      S1507   1.801       .  S
C1504      H1508   1.084       .  S
S1505      H1510   1.407       .  S
S1507      H1511   1.407       .  S
C1513      C1514   1.401       .  A
C1513      C1518   1.401       .  A
C1513      H1523   1.084       .  S
C1514      C1519   1.480       .  S
C1514      C1515   1.410       .  A
C1515      C1516   1.397       .  A
C1515      S1520   1.804       .  S
C1516      C1517   1.408       .  A
C1516      H1521   1.084       .  S
C1517      C1518   1.416       .  A
C1518      S1522   1.796       .  S
C1519      C1524   1.409       .  A
C1519      C1528   1.401       .  A
S1520      H1536   1.407       .  S
S1522      H1533   1.407       .  S
C1524      C1525   1.405       .  A
C1524      S1529   1.805       .  S
C1525      C1526   1.406       .  A
C1525      H1530   1.083       .  S
C1526      C1527   1.416       .  A
C1527      C1528   1.396       .  A
C1527      S1531   1.804       .  S
C1528      H1532   1.084       .  S
S1529      H1534   1.407       .  S
S1531      H1535   1.407       .  S
C1537      C1538   1.398       .  A
C1537      C1542   1.393       .  A
C1537      H1547   1.084       .  S
C1538      C1543   1.469       .  S
C1538      C1539   1.410       .  A
C1539      C1540   1.399       .  A
C1539      S1544   1.804       .  S
C1540      C1541   1.405       .  A
C1540      H1545   1.084       .  S
C1541      C1542   1.414       .  A
C1542      S1546   1.804       .  S
C1543      C1548   1.408       .  A
C1543      C1552   1.398       .  A
S1544      H1560   1.406       .  S
S1546      H1557   1.407       .  S
C1548      C1549   1.400       .  A
C1548      S1553   1.806       .  S
C1549      C1550   1.401       .  A
C1549      H1554   1.083       .  S
C1550      C1551   1.413       .  A
C1551      C1552   1.394       .  A
C1551      S1555   1.801       .  S
C1552      H1556   1.084       .  S
S1553      H1558   1.407       .  S
S1555      H1559   1.399       .  S
C1561      C1562   1.402       .  A
C1561      C1566   1.403       .  A
C1561      H1571   1.084       .  S
C1562      C1567   1.480       .  S
C1562      C1563   1.411       .  A
C1563      C1564   1.397       .  A
C1563      S1568   1.806       .  S
C1564      C1565   1.407       .  A
C1564      H1569   1.084       .  S
C1565      C1566   1.419       .  A
C1566      S1570   1.800       .  S
C1567      C1572   1.409       .  A
C1567      C1576   1.401       .  A
S1568      H1584   1.404       .  S
S1570      H1581   1.407       .  S
C1572      C1573   1.403       .  A
C1572      S1577   1.807       .  S
C1573      C1574   1.406       .  A
C1573      H1578   1.083       .  S
C1574      C1575   1.418       .  A
C1575      C1576   1.401       .  A
C1575      S1579   1.806       .  S
C1576      H1580   1.084       .  S
S1577      H1582   1.407       .  S
S1579      H1583   1.400       .  S
C1585      C1586   1.401       .  A
C1585      C1590   1.400       .  A
C1585      H1595   1.084       .  S
C1586      C1591   1.476       .  S
C1586      C1587   1.411       .  A
C1587      C1588   1.398       .  A
C1587      S1592   1.807       .  S
C1588      C1589   1.405       .  A
C1588      H1593   1.084       .  S
C1589      C1590   1.414       .  A
C1590      S1594   1.802       .  S
C1591      C1596   1.408       .  A
C1591      C1600   1.400       .  A
S1592      H1608   1.404       .  S
S1594      H1605   1.407       .  S
C1596      C1597   1.403       .  A
C1596      S1601   1.805       .  S
C1597      C1598   1.404       .  A
C1597      H1602   1.083       .  S
C1598      C1599   1.416       .  A
C1599      C1600   1.397       .  A
C1599      S1603   1.806       .  S
C1600      H1604   1.084       .  S
S1601      H1606   1.406       .  S
S1603      H1607   1.406       .  S
C1609      C1610   1.401       .  A
C1609      C1614   1.400       .  A
C1609      H1619   1.084       .  S
C1610      C1615   1.477       .  S
C1610      C1611   1.409       .  A
C1611      C1612   1.397       .  A
C1611      S1616   1.805       .  S
C1612      C1613   1.407       .  A
C1612      H1617   1.084       .  S
C1613      C1614   1.417       .  A
C1614      S1618   1.802       .  S
C1615      C1620   1.407       .  A
C1615      C1624   1.400       .  A
S1616      H1632   1.406       .  S
S1618      H1629   1.407       .  S
C1620      C1621   1.403       .  A
C1620      S1625   1.804       .  S
C1621      C1622   1.407       .  A
C1621      H1626   1.083       .  S
C1622      C1623   1.416       .  A
C1623      C1624   1.396       .  A
C1623      S1627   1.801       .  S
C1624      H1628   1.084       .  S
S1625      H1630   1.407       .  S
S1627      H1631   1.407       .  S
C1633      C1634   1.403       .  A
C1633      C1638   1.403       .  A
C1633      H1643   1.084       .  S
C1634      C1639   1.484       .  S
C1634      C1635   1.412       .  A
C1635      C1636   1.399       .  A
C1635      S1640   1.804       .  S
C1636      C1637   1.404       .  A
C1636      H1641   1.084       .  S
C1637      C1638   1.418       .  A
C1638      S1642   1.804       .  S
C1639      C1644   1.409       .  A
C1639      C1648   1.401       .  A
S1640      H1656   1.406       .  S
S1642      H1653   1.407       .  S
C1644      C1645   1.408       .  A
C1644      S1649   1.805       .  S
C1645      C1646   1.408       .  A
C1645      H1650   1.083       .  S
C1646      C1647   1.416       .  A
C1647      C1648   1.398       .  A
C1647      S1651   1.803       .  S
C1648      H1652   1.084       .  S
S1649      H1654   1.407       .  S
S1651      H1655   1.407       .  S
C1657      C1658   1.402       .  A
C1657      C1662   1.402       .  A
C1657      H1667   1.084       .  S
C1658      C1663   1.481       .  S
C1658      C1659   1.411       .  A
C1659      C1660   1.400       .  A
C1659      S1664   1.805       .  S
C1660      C1661   1.405       .  A
C1660      H1665   1.084       .  S
C1661      C1662   1.416       .  A
C1662      S1666   1.802       .  S
C1663      C1668   1.408       .  A
C1663      C1672   1.401       .  A
S1664      H1680   1.406       .  S
S1666      H1677   1.407       .  S
C1668      C1669   1.404       .  A
C1668      S1673   1.806       .  S
C1669      C1670   1.408       .  A
C1669      H1674   1.081       .  S
C1670      C1671   1.417       .  A
C1671      C1672   1.398       .  A
C1671      S1675   1.804       .  S
C1672      H1676   1.084       .  S
S1673      H1678   1.407       .  S
S1675      H1679   1.408       .  S
C1681      C1682   1.401       .  A
C1681      C1686   1.396       .  A
C1681      H1691   1.084       .  S
C1682      C1687   1.476       .  S
C1682      C1683   1.412       .  A
C1683      C1684   1.400       .  A
C1683      S1688   1.806       .  S
C1684      C1685   1.406       .  A
C1684      H1689   1.084       .  S
C1685      C1686   1.415       .  A
C1686      S1690   1.804       .  S
C1687      C1692   1.407       .  A
C1687      C1696   1.402       .  A
S1688      H1704   1.404       .  S
S1690      H1701   1.407       .  S
C1692      C1693   1.398       .  A
C1692      S1697   1.808       .  S
C1693      C1694   1.404       .  A
C1693      H1698   1.083       .  S
C1694      C1695   1.417       .  A
C1695      C1696   1.402       .  A
C1695      S1699   1.804       .  S
C1696      H1700   1.084       .  S
S1697      H1702   1.406       .  S
S1699      H1703   1.407       .  S
C1705      C1706   1.403       .  A
C1705      C1710   1.400       .  A
C1705      H1715   1.084       .  S
C1706      C1711   1.478       .  S
C1706      C1707   1.411       .  A
C1707      C1708   1.396       .  A
C1707      S1712   1.805       .  S
C1708      C1709   1.403       .  A
C1708      H1713   1.084       .  S
C1709      C1710   1.413       .  A
C1710      S1714   1.802       .  S
C1711      C1716   1.407       .  A
C1711      C1720   1.398       .  A
S1712      H1728   1.406       .  S
S1714      H1725   1.406       .  S
C1716      C1717   1.398       .  A
C1716      S1721   1.809       .  S
C1717      C1718   1.409       .  A
C1717      H1722   1.081       .  S
C1718      C1719   1.425       .  A
C1719      C1720   1.404       .  A
C1719      S1723   1.811       .  S
C1720      H1724   1.083       .  S
S1721      H1726   1.406       .  S
S1723      H1727   1.406       .  S
C1729      C1730   1.402       .  A
C1729      C1734   1.396       .  A
C1729      H1739   1.084       .  S
C1730      C1735   1.473       .  S
C1730      C1731   1.411       .  A
C1731      C1732   1.398       .  A
C1731      S1736   1.805       .  S
C1732      C1733   1.404       .  A
C1732      H1737   1.084       .  S
C1733      C1734   1.411       .  A
C1734      S1738   1.805       .  S
C1735      C1740   1.408       .  A
C1735      C1744   1.400       .  A
S1736      H1752   1.405       .  S
S1738      H1749   1.407       .  S
C1740      C1741   1.401       .  A
C1740      S1745   1.808       .  S
C1741      C1742   1.404       .  A
C1741      H1746   1.083       .  S
C1742      C1743   1.414       .  A
C1743      C1744   1.398       .  A
C1743      S1747   1.803       .  S
C1744      H1748   1.084       .  S
S1745      H1750   1.406       .  S
S1747      H1751   1.407       .  S
C1753      C1754   1.403       .  A
C1753      C1758   1.402       .  A
C1753      H1763   1.084       .  S
C1754      C1759   1.479       .  S
C1754      C1755   1.411       .  A
C1755      C1756   1.396       .  A
C1755      S1760   1.805       .  S
C1756      C1757   1.405       .  A
C1756      H1761   1.084       .  S
C1757      C1758   1.415       .  A
C1758      S1762   1.804       .  S
C1759      C1764   1.408       .  A
C1759      C1768   1.399       .  A
S1760      H1776   1.405       .  S
S1762      H1773   1.407       .  S
C1764      C1765   1.406       .  A
C1764      S1769   1.805       .  S
C1765      C1766   1.407       .  A
C1765      H1770   1.083       .  S
C1766      C1767   1.418       .  A
C1767      C1768   1.397       .  A
C1767      S1771   1.804       .  S
C1768      H1772   1.084       .  S
S1769      H1774   1.407       .  S
S1771      H1775   1.407       .  S
C1777      C1778   1.401       .  A
C1777      C1782   1.396       .  A
C1777      H1787   1.084       .  S
C1778      C1783   1.473       .  S
C1778      C1779   1.411       .  A
C1779      C1780   1.398       .  A
C1779      S1784   1.804       .  S
C1780      C1781   1.403       .  A
C1780      H1785   1.084       .  S
C1781      C1782   1.414       .  A
C1782      S1786   1.806       .  S
C1783      C1788   1.407       .  A
C1783      C1792   1.400       .  A
S1784      H1800   1.405       .  S
S1786      H1797   1.405       .  S
C1788      C1789   1.401       .  A
C1788      S1793   1.807       .  S
C1789      C1790   1.407       .  A
C1789      H1794   1.083       .  S
C1790      C1791   1.416       .  A
C1791      C1792   1.398       .  A
C1791      S1795   1.802       .  S
C1792      H1796   1.084       .  S
S1793      H1798   1.407       .  S
S1795      H1799   1.407       .  S
C1801      C1802   1.401       .  A
C1801      C1806   1.395       .  A
C1801      H1811   1.084       .  S
C1802      C1807   1.473       .  S
C1802      C1803   1.412       .  A
C1803      C1804   1.399       .  A
C1803      S1808   1.806       .  S
C1804      C1805   1.404       .  A
C1804      H1809   1.084       .  S
C1805      C1806   1.414       .  A
C1806      S1810   1.805       .  S
C1807      C1812   1.404       .  A
C1807      C1816   1.399       .  A
S1808      H1824   1.404       .  S
S1810      H1821   1.407       .  S
C1812      C1813   1.399       .  A
C1812      S1817   1.807       .  S
C1813      C1814   1.409       .  A
C1813      H1818   1.080       .  S
C1814      C1815   1.419       .  A
C1815      C1816   1.400       .  A
C1815      S1819   1.811       .  S
C1816      H1820   1.083       .  S
S1817      H1822   1.407       .  S
S1819      H1823   1.407       .  S
C1825      C1826   1.402       .  A
C1825      C1830   1.399       .  A
C1825      H1835   1.083       .  S
C1826      C1831   1.473       .  S
C1826      C1827   1.412       .  A
C1827      C1828   1.398       .  A
C1827      S1832   1.805       .  S
C1828      C1829   1.402       .  A
C1828      H1833   1.084       .  S
C1829      C1830   1.408       .  A
C1830      S1834   1.805       .  S
C1831      C1836   1.408       .  A
C1831      C1840   1.400       .  A
S1832      H1848   1.405       .  S
S1834      H1845   1.407       .  S
C1836      C1837   1.400       .  A
C1836      S1841   1.807       .  S
C1837      C1838   1.406       .  A
C1837      H1842   1.083       .  S
C1838      C1839   1.416       .  A
C1839      C1840   1.397       .  A
C1839      S1843   1.803       .  S
C1840      H1844   1.084       .  S
S1841      H1846   1.407       .  S
S1843      H1847   1.407       .  S
C1849      C1850   1.400       .  A
C1849      C1854   1.396       .  A
C1849      H1859   1.084       .  S
C1850      C1855   1.471       .  S
C1850      C1851   1.410       .  A
C1851      C1852   1.397       .  A
C1851      S1856   1.803       .  S
C1852      C1853   1.403       .  A
C1852      H1857   1.084       .  S
C1853      C1854   1.415       .  A
C1854      S1858   1.804       .  S
C1855      C1860   1.407       .  A
C1855      C1864   1.399       .  A
S1856      H1872   1.405       .  S
S1858      H1869   1.404       .  S
C1860      C1861   1.402       .  A
C1860      S1865   1.806       .  S
C1861      C1862   1.404       .  A
C1861      H1866   1.083       .  S
C1862      C1863   1.412       .  A
C1863      C1864   1.395       .  A
C1863      S1867   1.801       .  S
C1864      H1868   1.084       .  S
S1865      H1870   1.407       .  S
S1867      H1871   1.407       .  S
C1873      C1874   1.400       .  A
C1873      C1878   1.398       .  A
C1873      H1883   1.084       .  S
C1874      C1879   1.476       .  S
C1874      C1875   1.410       .  A
C1875      C1876   1.399       .  A
C1875      S1880   1.805       .  S
C1876      C1877   1.406       .  A
C1876      H1881   1.081       .  S
C1877      C1878   1.420       .  A
C1878      S1882   1.803       .  S
C1879      C1884   1.409       .  A
C1879      C1888   1.400       .  A
S1880      H1896   1.404       .  S
S1882      H1893   1.407       .  S
C1884      C1885   1.405       .  A
C1884      S1889   1.806       .  S
C1885      C1886   1.405       .  A
C1885      H1890   1.083       .  S
C1886      C1887   1.414       .  A
C1887      C1888   1.396       .  A
C1887      S1891   1.804       .  S
C1888      H1892   1.084       .  S
S1889      H1894   1.407       .  S
S1891      H1895   1.407       .  S
C1897      C1898   1.399       .  A
C1897      C1902   1.393       .  A
C1897      H1907   1.084       .  S
C1898      C1903   1.473       .  S
C1898      C1899   1.410       .  A
C1899      C1900   1.400       .  A
C1899      S1904   1.802       .  S
C1900      C1901   1.406       .  A
C1900      H1905   1.084       .  S
C1901      C1902   1.416       .  A
C1902      S1906   1.804       .  S
C1903      C1908   1.406   1_655  A
C1903      C1912   1.400       .  A
S1904      H1920   1.406       .  S
S1906      H1917   1.405       .  S
C1908      C1909   1.399       .  A
C1908      S1913   1.807       .  S
C1909      C1910   1.406       .  A
C1909      H1914   1.083       .  S
C1910      C1911   1.417       .  A
C1911      C1912   1.399   1_455  A
C1911      S1915   1.802       .  S
C1912      H1916   1.084       .  S
S1913      H1918   1.407       .  S
S1915      H1919   1.407       .  S
C1921      C1922   1.401       .  A
C1921      C1926   1.399       .  A
C1921      H1931   1.084       .  S
C1922      C1927   1.481       .  S
C1922      C1923   1.412       .  A
C1923      C1924   1.403       .  A
C1923      S1928   1.805       .  S
C1924      C1925   1.407       .  A
C1924      H1929   1.084       .  S
C1925      C1926   1.417       .  A
C1926      S1930   1.805       .  S
C1927      C1932   1.407       .  A
C1927      C1936   1.403       .  A
S1928      H1944   1.404       .  S
S1930      H1941   1.404       .  S
C1932      C1933   1.400       .  A
C1932      S1937   1.807       .  S
C1933      C1934   1.405       .  A
C1933      H1938   1.083       .  S
C1934      C1935   1.417       .  A
C1935      C1936   1.405       .  A
C1935      S1939   1.803       .  S
C1936      H1940   1.084       .  S
S1937      H1942   1.406       .  S
S1939      H1943   1.407       .  S
C1945      C1946   1.401       .  A
C1945      C1950   1.396       .  A
C1945      H1955   1.084       .  S
C1946      C1951   1.483       .  S
C1946      C1947   1.413       .  A
C1947      C1948   1.404       .  A
C1947      S1952   1.804       .  S
C1948      C1949   1.408       .  A
C1948      H1953   1.084       .  S
C1949      C1950   1.417       .  A
C1950      S1954   1.804       .  S
C1951      C1956   1.409   1_655  A
C1951      C1960   1.403       .  A
S1952      H1968   1.405       .  S
S1954      H1965   1.407       .  S
C1956      C1957   1.400       .  A
C1956      S1961   1.808       .  S
C1957      C1958   1.405       .  A
C1957      H1962   1.083       .  S
C1958      C1959   1.417       .  A
C1959      C1960   1.403   1_455  A
C1959      S1963   1.802       .  S
C1960      H1964   1.084       .  S
S1961      H1966   1.407       .  S
S1963      H1967   1.407       .  S
C1969      C1970   1.399       .  A
C1969      C1974   1.398       .  A
C1969      H1979   1.084       .  S
C1970      C1975   1.472       .  S
C1970      C1971   1.410       .  A
C1971      C1972   1.395       .  A
C1971      S1976   1.803       .  S
C1972      C1973   1.403       .  A
C1972      H1977   1.084       .  S
C1973      C1974   1.417       .  A
C1974      S1978   1.804       .  S
C1975      C1980   1.407       .  A
C1975      C1984   1.398   1_655  A
S1976      H1992   1.406       .  S
S1978      H1989   1.406       .  S
C1980      C1981   1.404   1_655  A
C1980      S1985   1.806       .  S
C1981      C1982   1.408       .  A
C1981      H1986   1.083       .  S
C1982      C1983   1.416       .  A
C1983      C1984   1.393       .  A
C1983      S1987   1.803       .  S
C1984      H1988   1.084       .  S
S1985      H1990   1.407       .  S
S1987      H1991   1.407       .  S
C1993      C1994   1.404       .  A
C1993      C1998   1.403       .  A
C1993      H2003   1.084       .  S
C1994      C1999   1.483       .  S
C1994      C1995   1.411       .  A
C1995      C1996   1.395       .  A
C1995      S2000   1.805       .  S
C1996      C1997   1.406       .  A
C1996      H2001   1.084       .  S
C1997      C1998   1.417       .  A
C1998      S2002   1.803       .  S
C1999      C2004   1.410       .  A
C1999      C2008   1.402       .  A
S2000      H2016   1.406       .  S
S2002      H2013   1.407       .  S
C2004      C2005   1.405       .  A
C2004      S2009   1.806       .  S
C2005      C2006   1.406       .  A
C2005      H2010   1.083       .  S
C2006      C2007   1.416       .  A
C2007      C2008   1.397       .  A
C2007      S2011   1.804       .  S
C2008      H2012   1.084       .  S
S2009      H2014   1.407       .  S
S2011      H2015   1.405       .  S
C2017      C2018   1.401       .  A
C2017      C2022   1.402   1_655  A
C2017      H2027   1.084       .  S
C2018      C2023   1.478       .  S
C2018      C2019   1.410   1_655  A
C2019      C2020   1.398       .  A
C2019      S2024   1.806       .  S
C2020      C2021   1.409       .  A
C2020      H2025   1.083       .  S
C2021      C2022   1.420       .  A
C2022      S2026   1.802       .  S
C2023      C2028   1.411       .  A
C2023      C2032   1.399       .  A
S2024      H2040   1.405   1_455  S
S2026      H2037   1.408       .  S
C2028      C2029   1.406       .  A
C2028      S2033   1.805       .  S
C2029      C2030   1.403       .  A
C2029      H2034   1.083       .  S
C2030      C2031   1.412       .  A
C2031      C2032   1.396       .  A
C2031      S2035   1.804       .  S
C2032      H2036   1.084       .  S
S2033      H2038   1.407       .  S
S2035      H2039   1.406       .  S
C2041      C2042   1.402       .  A
C2041      C2046   1.397       .  A
C2041      H2051   1.084       .  S
C2042      C2047   1.474       .  S
C2042      C2043   1.412       .  A
C2043      C2044   1.399       .  A
C2043      S2048   1.805       .  S
C2044      C2045   1.404       .  A
C2044      H2049   1.084       .  S
C2045      C2046   1.412       .  A
C2046      S2050   1.803       .  S
C2047      C2052   1.407       .  A
C2047      C2056   1.400       .  A
S2048      H2064   1.403       .  S
S2050      H2061   1.407       .  S
C2052      C2053   1.402       .  A
C2052      S2057   1.807       .  S
C2053      C2054   1.405       .  A
C2053      H2058   1.083       .  S
C2054      C2055   1.417       .  A
C2055      C2056   1.398       .  A
C2055      S2059   1.803       .  S
C2056      H2060   1.084       .  S
S2057      H2062   1.407       .  S
S2059      H2063   1.407       .  S
C2065      C2066   1.404       .  A
C2065      C2070   1.404       .  A
C2065      H2075   1.084       .  S
C2066      C2071   1.485       .  S
C2066      C2067   1.411       .  A
C2067      C2068   1.398       .  A
C2067      S2072   1.805       .  S
C2068      C2069   1.405       .  A
C2068      H2073   1.084       .  S
C2069      C2070   1.417       .  A
C2070      S2074   1.803       .  S
C2071      C2076   1.410       .  A
C2071      C2080   1.401       .  A
S2072      H2088   1.406       .  S
S2074      H2085   1.407       .  S
C2076      C2077   1.407       .  A
C2076      S2081   1.805       .  S
C2077      C2078   1.406       .  A
C2077      H2082   1.080       .  S
C2078      C2079   1.418       .  A
C2079      C2080   1.397       .  A
C2079      S2083   1.803       .  S
C2080      H2084   1.084       .  S
S2081      H2086   1.407       .  S
S2083      H2087   1.407       .  S
C2089      C2090   1.401       .  A
C2089      C2094   1.398   1_655  A
C2089      H2099   1.084       .  S
C2090      C2095   1.473       .  S
C2090      C2091   1.409       .  A
C2091      C2092   1.398   1_655  A
C2091      S2096   1.803       .  S
C2092      C2093   1.406       .  A
C2092      H2097   1.084       .  S
C2093      C2094   1.414       .  A
C2094      S2098   1.803       .  S
C2095      C2100   1.409       .  A
C2095      C2104   1.401       .  A
S2096      H2112   1.406       .  S
S2098      H2109   1.407       .  S
C2100      C2101   1.400       .  A
C2100      S2105   1.807       .  S
C2101      C2102   1.402       .  A
C2101      H2106   1.083       .  S
C2102      C2103   1.413       .  A
C2103      C2104   1.398       .  A
C2103      S2107   1.805       .  S
C2104      H2108   1.084       .  S
S2105      H2110   1.407       .  S
S2107      H2111   1.407       .  S
C2113      C2114   1.402       .  A
C2113      C2118   1.396       .  A
C2113      H2123   1.084       .  S
C2114      C2119   1.481       .  S
C2114      C2115   1.411       .  A
C2115      C2116   1.401       .  A
C2115      S2120   1.804       .  S
C2116      C2117   1.408       .  A
C2116      H2121   1.084       .  S
C2117      C2118   1.415       .  A
C2118      S2122   1.804       .  S
C2119      C2124   1.409       .  A
C2119      C2128   1.402       .  A
S2120      H2136   1.406       .  S
S2122      H2133   1.407       .  S
C2124      C2125   1.399       .  A
C2124      S2129   1.808       .  S
C2125      C2126   1.404       .  A
C2125      H2130   1.083       .  S
C2126      C2127   1.417       .  A
C2127      C2128   1.401       .  A
C2127      S2131   1.803       .  S
C2128      H2132   1.084       .  S
S2129      H2134   1.407       .  S
S2131      H2135   1.407       .  S
C2137      C2138   1.402       .  A
C2137      C2142   1.402       .  A
C2137      H2147   1.084       .  S
C2138      C2143   1.478       .  S
C2138      C2139   1.411       .  A
C2139      C2140   1.395       .  A
C2139      S2144   1.805       .  S
C2140      C2141   1.405       .  A
C2140      H2145   1.084       .  S
C2141      C2142   1.417       .  A
C2142      S2146   1.804       .  S
C2143      C2148   1.409       .  A
C2143      C2152   1.399   1_655  A
S2144      H2160   1.405       .  S
S2146      H2157   1.408       .  S
C2148      C2149   1.406   1_655  A
C2148      S2153   1.806       .  S
C2149      C2150   1.407       .  A
C2149      H2154   1.083       .  S
C2150      C2151   1.417       .  A
C2151      C2152   1.395       .  A
C2151      S2155   1.804       .  S
C2152      H2156   1.084       .  S
S2153      H2158   1.407       .  S
S2155      H2159   1.408       .  S
C2161      C2162   1.401       .  A
C2161      C2166   1.398       .  A
C2161      H2171   1.084       .  S
C2162      C2167   1.480       .  S
C2162      C2163   1.413       .  A
C2163      C2164   1.402       .  A
C2163      S2168   1.806       .  S
C2164      C2165   1.407       .  A
C2164      H2169   1.084       .  S
C2165      C2166   1.416       .  A
C2166      S2170   1.803       .  S
C2167      C2172   1.408       .  A
C2167      C2176   1.400       .  A
S2168      H2184   1.404       .  S
S2170      H2181   1.408       .  S
C2172      C2173   1.405       .  A
C2172      S2177   1.806       .  S
C2173      C2174   1.405       .  A
C2173      H2178   1.080       .  S
C2174      C2175   1.416       .  A
C2175      C2176   1.398       .  A
C2175      S2179   1.803       .  S
C2176      H2180   1.084       .  S
S2177      H2182   1.406       .  S
S2179      H2183   1.408       .  S
C2185      C2186   1.402       .  A
C2185      C2190   1.400   1_655  A
C2185      H2195   1.084       .  S
C2186      C2191   1.475       .  S
C2186      C2187   1.412   1_655  A
C2187      C2188   1.398       .  A
C2187      S2192   1.806   1_455  S
C2188      C2189   1.404       .  A
C2188      H2193   1.084       .  S
C2189      C2190   1.416       .  A
C2190      S2194   1.803       .  S
C2191      C2196   1.408       .  A
C2191      C2200   1.399       .  A
S2192      H2208   1.402       .  S
S2194      H2205   1.407       .  S
C2196      C2197   1.404       .  A
C2196      S2201   1.804       .  S
C2197      C2198   1.405       .  A
C2197      H2202   1.083       .  S
C2198      C2199   1.414       .  A
C2199      C2200   1.395       .  A
C2199      S2203   1.804       .  S
C2200      H2204   1.084       .  S
S2201      H2206   1.407       .  S
S2203      H2207   1.406       .  S
C2209      C2210   1.402       .  A
C2209      C2214   1.398       .  A
C2209      H2219   1.084       .  S
C2210      C2215   1.476       .  S
C2210      C2211   1.412       .  A
C2211      C2212   1.401       .  A
C2211      S2216   1.806       .  S
C2212      C2213   1.406       .  A
C2212      H2217   1.084       .  S
C2213      C2214   1.413       .  A
C2214      S2218   1.804       .  S
C2215      C2220   1.407       .  A
C2215      C2224   1.400       .  A
S2216      H2232   1.403       .  S
S2218      H2229   1.407       .  S
C2220      C2221   1.403       .  A
C2220      S2225   1.805       .  S
C2221      C2222   1.407       .  A
C2221      H2226   1.083       .  S
C2222      C2223   1.416       .  A
C2223      C2224   1.397       .  A
C2223      S2227   1.804       .  S
C2224      H2228   1.084       .  S
S2225      H2230   1.407       .  S
S2227      H2231   1.407       .  S
C2233      C2234   1.400       .  A
C2233      C2238   1.396   1_655  A
C2233      H2243   1.084       .  S
C2234      C2239   1.469       .  S
C2234      C2235   1.411   1_655  A
C2235      C2236   1.397       .  A
C2235      S2240   1.807       .  S
C2236      C2237   1.404       .  A
C2236      H2241   1.084       .  S
C2237      C2238   1.414       .  A
C2238      S2242   1.803       .  S
C2239      C2244   1.406       .  A
C2239      C2248   1.399       .  A
S2240      H2256   1.403   1_455  S
S2242      H2253   1.407       .  S
C2244      C2245   1.401       .  A
C2244      S2249   1.805       .  S
C2245      C2246   1.406       .  A
C2245      H2250   1.083       .  S
C2246      C2247   1.413       .  A
C2247      C2248   1.394       .  A
C2247      S2251   1.805       .  S
C2248      H2252   1.084       .  S
S2249      H2254   1.407       .  S
S2251      H2255   1.407       .  S
C2257      C2258   1.401       .  A
C2257      C2262   1.400       .  A
C2257      H2267   1.084       .  S
C2258      C2263   1.479       .  S
C2258      C2259   1.414       .  A
C2259      C2260   1.399       .  A
C2259      S2264   1.806       .  S
C2260      C2261   1.404       .  A
C2260      H2265   1.084       .  S
C2261      C2262   1.416       .  A
C2262      S2266   1.804       .  S
C2263      C2268   1.407       .  A
C2263      C2272   1.401       .  A
S2264      H2280   1.404       .  S
S2266      H2277   1.407       .  S
C2268      C2269   1.402       .  A
C2268      S2273   1.807       .  S
C2269      C2270   1.407       .  A
C2269      H2274   1.083       .  S
C2270      C2271   1.419       .  A
C2271      C2272   1.402       .  A
C2271      S2275   1.802       .  S
C2272      H2276   1.084       .  S
S2273      H2278   1.406       .  S
S2275      H2279   1.407       .  S
C2281      C2282   1.402       .  A
C2281      C2286   1.399       .  A
C2281      H2291   1.084       .  S
C2282      C2287   1.481       .  S
C2282      C2283   1.414       .  A
C2283      C2284   1.403       .  A
C2283      S2288   1.807       .  S
C2284      C2285   1.406       .  A
C2284      H2289   1.084       .  S
C2285      C2286   1.413       .  A
C2286      S2290   1.803       .  S
C2287      C2292   1.409       .  A
C2287      C2296   1.401       .  A
S2288      H2304   1.403       .  S
S2290      H2301   1.407       .  S
C2292      C2293   1.405       .  A
C2292      S2297   1.806       .  S
C2293      C2294   1.405       .  A
C2293      H2298   1.083       .  S
C2294      C2295   1.416       .  A
C2295      C2296   1.400       .  A
C2295      S2299   1.804       .  S
C2296      H2300   1.084       .  S
S2297      H2302   1.407       .  S
S2299      H2303   1.405       .  S
C2305      C2306   1.401       .  A
C2305      C2310   1.400       .  A
C2305      H2315   1.084       .  S
C2306      C2311   1.473       .  S
C2306      C2307   1.409       .  A
C2307      C2308   1.395       .  A
C2307      S2312   1.805       .  S
C2308      C2309   1.406       .  A
C2308      H2313   1.084       .  S
C2309      C2310   1.417       .  A
C2310      S2314   1.802       .  S
C2311      C2316   1.408       .  A
C2311      C2320   1.399       .  A
S2312      H2328   1.405       .  S
S2314      H2325   1.407       .  S
C2316      C2317   1.403       .  A
C2316      S2321   1.805       .  S
C2317      C2318   1.403       .  A
C2317      H2322   1.083       .  S
C2318      C2319   1.413       .  A
C2319      C2320   1.395       .  A
C2319      S2323   1.802       .  S
C2320      H2324   1.084       .  S
S2321      H2326   1.406       .  S
S2323      H2327   1.404       .  S
C2329      C2330   1.400       .  A
C2329      C2334   1.399       .  A
C2329      H2339   1.084       .  S
C2330      C2335   1.472       .  S
C2330      C2331   1.408       .  A
C2331      C2332   1.394       .  A
C2331      S2336   1.806       .  S
C2332      C2333   1.408       .  A
C2332      H2337   1.084       .  S
C2333      C2334   1.419       .  A
C2334      S2338   1.800       .  S
C2335      C2340   1.407       .  A
C2335      C2344   1.400       .  A
S2336      H2352   1.405       .  S
S2338      H2349   1.407       .  S
C2340      C2341   1.401       .  A
C2340      S2345   1.806       .  S
C2341      C2342   1.404       .  A
C2341      H2346   1.083       .  S
C2342      C2343   1.415       .  A
C2343      C2344   1.395       .  A
C2343      S2347   1.805       .  S
C2344      H2348   1.084       .  S
S2345      H2350   1.407       .  S
S2347      H2351   1.405       .  S
C2353      C2354   1.401       .  A
C2353      C2358   1.399       .  A
C2353      H2363   1.084       .  S
C2354      C2359   1.474       .  S
C2354      C2355   1.410       .  A
C2355      C2356   1.396       .  A
C2355      S2360   1.805       .  S
C2356      C2357   1.406       .  A
C2356      H2361   1.084       .  S
C2357      C2358   1.415       .  A
C2358      S2362   1.802       .  S
C2359      C2364   1.407       .  A
C2359      C2368   1.400       .  A
S2360      H2376   1.406       .  S
S2362      H2373   1.407       .  S
C2364      C2365   1.402       .  A
C2364      S2369   1.805       .  S
C2365      C2366   1.404       .  A
C2365      H2370   1.083       .  S
C2366      C2367   1.416       .  A
C2367      C2368   1.396       .  A
C2367      S2371   1.806       .  S
C2368      H2372   1.084       .  S
S2369      H2374   1.406       .  S
S2371      H2375   1.404       .  S
C2377      C2378   1.401       .  A
C2377      C2382   1.401       .  A
C2377      H2387   1.084       .  S
C2378      C2383   1.475       .  S
C2378      C2379   1.411       .  A
C2379      C2380   1.396       .  A
C2379      S2384   1.805       .  S
C2380      C2381   1.404       .  A
C2380      H2385   1.084       .  S
C2381      C2382   1.415       .  A
C2382      S2386   1.804       .  S
C2383      C2388   1.408       .  A
C2383      C2392   1.399       .  A
S2384      H2400   1.405       .  S
S2386      H2397   1.408       .  S
C2388      C2389   1.405       .  A
C2388      S2393   1.805       .  S
C2389      C2390   1.406       .  A
C2389      H2394   1.083       .  S
C2390      C2391   1.415       .  A
C2391      C2392   1.396       .  A
C2391      S2395   1.804       .  S
C2392      H2396   1.084       .  S
S2393      H2398   1.407       .  S
S2395      H2399   1.408       .  S
C2401      C2402   1.399       .  A
C2401      C2406   1.399       .  A
C2401      H2411   1.083       .  S
C2402      C2407   1.477       .  S
C2402      C2403   1.410       .  A
C2403      C2404   1.402       .  A
C2403      S2408   1.804       .  S
C2404      C2405   1.407       .  A
C2404      H2409   1.084       .  S
C2405      C2406   1.418       .  A
C2406      S2410   1.811       .  S
C2407      C2412   1.408       .  A
C2407      C2416   1.401       .  A
S2408      H2424   1.405       .  S
S2410      H2421   1.406       .  S
C2412      C2413   1.401       .  A
C2412      S2417   1.807       .  S
C2413      C2414   1.404       .  A
C2413      H2418   1.083       .  S
C2414      C2415   1.415       .  A
C2415      C2416   1.400       .  A
C2415      S2419   1.805       .  S
C2416      H2420   1.084       .  S
S2417      H2422   1.407       .  S
S2419      H2423   1.405       .  S
C2425      C2426   1.400       .  A
C2425      C2430   1.399       .  A
C2425      H2435   1.083       .  S
C2426      C2431   1.472       .  S
C2426      C2427   1.411       .  A
C2427      C2428   1.400       .  A
C2427      S2432   1.806       .  S
C2428      C2429   1.404       .  A
C2428      H2433   1.084       .  S
C2429      C2430   1.412       .  A
C2430      S2434   1.808       .  S
C2431      C2436   1.408       .  A
C2431      C2440   1.400       .  A
S2432      H2448   1.404       .  S
S2434      H2445   1.407       .  S
C2436      C2437   1.399       .  A
C2436      S2441   1.807       .  S
C2437      C2438   1.403       .  A
C2437      H2442   1.083       .  S
C2438      C2439   1.416       .  A
C2439      C2440   1.398       .  A
C2439      S2443   1.805       .  S
C2440      H2444   1.084       .  S
S2441      H2446   1.407       .  S
S2443      H2447   1.407       .  S
C2449      C2450   1.401       .  A
C2449      C2454   1.395       .  A
C2449      H2459   1.084       .  S
C2450      C2455   1.473       .  S
C2450      C2451   1.412       .  A
C2451      C2452   1.400       .  A
C2451      S2456   1.805       .  S
C2452      C2453   1.405       .  A
C2452      H2457   1.084       .  S
C2453      C2454   1.412       .  A
C2454      S2458   1.803       .  S
C2455      C2460   1.407       .  A
C2455      C2464   1.399       .  A
S2456      H2472   1.405       .  S
S2458      H2469   1.404       .  S
C2460      C2461   1.403       .  A
C2460      S2465   1.806       .  S
C2461      C2462   1.408       .  A
C2461      H2466   1.083       .  S
C2462      C2463   1.417       .  A
C2463      C2464   1.394       .  A
C2463      S2467   1.803       .  S
C2464      H2468   1.084       .  S
S2465      H2470   1.407       .  S
S2467      H2471   1.407       .  S
C2473      C2474   1.401       .  A
C2473      C2478   1.397       .  A
C2473      H2483   1.084       .  S
C2474      C2479   1.474       .  S
C2474      C2475   1.411       .  A
C2475      C2476   1.399       .  A
C2475      S2480   1.804       .  S
C2476      C2477   1.402       .  A
C2476      H2481   1.084       .  S
C2477      C2478   1.413       .  A
C2478      S2482   1.805       .  S
C2479      C2484   1.407       .  A
C2479      C2488   1.401       .  A
S2480      H2496   1.406       .  S
S2482      H2493   1.407       .  S
C2484      C2485   1.401       .  A
C2484      S2489   1.804       .  S
C2485      C2486   1.403       .  A
C2485      H2490   1.083       .  S
C2486      C2487   1.412       .  A
C2487      C2488   1.397       .  A
C2487      S2491   1.804       .  S
C2488      H2492   1.084       .  S
S2489      H2494   1.406       .  S
S2491      H2495   1.407       .  S
C2497      C2498   1.401       .  A
C2497      C2502   1.399       .  A
C2497      H2507   1.084       .  S
C2498      C2503   1.477       .  S
C2498      C2499   1.412       .  A
C2499      C2500   1.400       .  A
C2499      S2504   1.805       .  S
C2500      C2501   1.404       .  A
C2500      H2505   1.084       .  S
C2501      C2502   1.413       .  A
C2502      S2506   1.802       .  S
C2503      C2508   1.408       .  A
C2503      C2512   1.399       .  A
S2504      H2520   1.405       .  S
S2506      H2517   1.407       .  S
C2508      C2509   1.403       .  A
C2508      S2513   1.806       .  S
C2509      C2510   1.407       .  A
C2509      H2514   1.083       .  S
C2510      C2511   1.414       .  A
C2511      C2512   1.398       .  A
C2511      S2515   1.797       .  S
C2512      H2516   1.084       .  S
S2513      H2518   1.407       .  S
S2515      H2519   1.407       .  S
C2521      C2522   1.401       .  A
C2521      C2526   1.397       .  A
C2521      H2531   1.084       .  S
C2522      C2527   1.475       .  S
C2522      C2523   1.410       .  A
C2523      C2524   1.399       .  A
C2523      S2528   1.804       .  S
C2524      C2525   1.405       .  A
C2524      H2529   1.084       .  S
C2525      C2526   1.413       .  A
C2526      S2530   1.805       .  S
C2527      C2532   1.407       .  A
C2527      C2536   1.401       .  A
S2528      H2544   1.406       .  S
S2530      H2541   1.406       .  S
C2532      C2533   1.401       .  A
C2532      S2537   1.806       .  S
C2533      C2534   1.404       .  A
C2533      H2538   1.083       .  S
C2534      C2535   1.410       .  A
C2535      C2536   1.401       .  A
C2535      S2539   1.804       .  S
C2536      H2540   1.083       .  S
S2537      H2542   1.407       .  S
S2539      H2543   1.407       .  S
C2545      C2546   1.402       .  A
C2545      C2550   1.400       .  A
C2545      H2555   1.084       .  S
C2546      C2551   1.482       .  S
C2546      C2547   1.413       .  A
C2547      C2548   1.402       .  A
C2547      S2552   1.805       .  S
C2548      C2549   1.405       .  A
C2548      H2553   1.084       .  S
C2549      C2550   1.416       .  A
C2550      S2554   1.804       .  S
C2551      C2556   1.410       .  A
C2551      C2560   1.401       .  A
S2552      H2568   1.403       .  S
S2554      H2565   1.407       .  S
C2556      C2557   1.406       .  A
C2556      S2561   1.805       .  S
C2557      C2558   1.405       .  A
C2557      H2562   1.083       .  S
C2558      C2559   1.417       .  A
C2559      C2560   1.401       .  A
C2559      S2563   1.805       .  S
C2560      H2564   1.084       .  S
S2561      H2566   1.407       .  S
S2563      H2567   1.407       .  S
C2569      C2570   1.401       .  A
C2569      C2574   1.400       .  A
C2569      H2579   1.084       .  S
C2570      C2575   1.475       .  S
C2570      C2571   1.410       .  A
C2571      C2572   1.395       .  A
C2571      S2576   1.805       .  S
C2572      C2573   1.404       .  A
C2572      H2577   1.084       .  S
C2573      C2574   1.416       .  A
C2574      S2578   1.801       .  S
C2575      C2580   1.407       .  A
C2575      C2584   1.399       .  A
S2576      H2592   1.406       .  S
S2578      H2589   1.407       .  S
C2580      C2581   1.404       .  A
C2580      S2585   1.805       .  S
C2581      C2582   1.407       .  A
C2581      H2586   1.081       .  S
C2582      C2583   1.416       .  A
C2583      C2584   1.394       .  A
C2583      S2587   1.804       .  S
C2584      H2588   1.084       .  S
S2585      H2590   1.407       .  S
S2587      H2591   1.406       .  S
C2593      C2594   1.400       .  A
C2593      C2598   1.396       .  A
C2593      H2603   1.084       .  S
C2594      C2599   1.470       .  S
C2594      C2595   1.410       .  A
C2595      C2596   1.398   1_655  A
C2595      S2600   1.804   1_655  S
C2596      C2597   1.403       .  A
C2596      H2601   1.084       .  S
C2597      C2598   1.414   1_455  A
C2598      S2602   1.804       .  S
C2599      C2604   1.406       .  A
C2599      C2608   1.401       .  A
S2600      H2616   1.404   1_455  S
S2602      H2613   1.407   1_655  S
C2604      C2605   1.397       .  A
C2604      S2609   1.807       .  S
C2605      C2606   1.404       .  A
C2605      H2610   1.083       .  S
C2606      C2607   1.414       .  A
C2607      C2608   1.398       .  A
C2607      S2611   1.804       .  S
C2608      H2612   1.084       .  S
S2609      H2614   1.407       .  S
S2611      H2615   1.407       .  S
C2617      C2618   1.402       .  A
C2617      C2622   1.396       .  A
C2617      H2627   1.084       .  S
C2618      C2623   1.477       .  S
C2618      C2619   1.410       .  A
C2619      C2620   1.399       .  A
C2619      S2624   1.803       .  S
C2620      C2621   1.405       .  A
C2620      H2625   1.084       .  S
C2621      C2622   1.415       .  A
C2622      S2626   1.806       .  S
C2623      C2628   1.407       .  A
C2623      C2632   1.401   1_655  A
S2624      H2640   1.406       .  S
S2626      H2637   1.406       .  S
C2628      C2629   1.399       .  A
C2628      S2633   1.808       .  S
C2629      C2630   1.407   1_655  A
C2629      H2634   1.083       .  S
C2630      C2631   1.418       .  A
C2631      C2632   1.401       .  A
C2631      S2635   1.802       .  S
C2632      H2636   1.084       .  S
S2633      H2638   1.407       .  S
S2635      H2639   1.407       .  S
C2641      C2642   1.403       .  A
C2641      C2646   1.403       .  A
C2641      H2651   1.084       .  S
C2642      C2647   1.479       .  S
C2642      C2643   1.411       .  A
C2643      C2644   1.396       .  A
C2643      S2648   1.806       .  S
C2644      C2645   1.404       .  A
C2644      H2649   1.084       .  S
C2645      C2646   1.416       .  A
C2646      S2650   1.803       .  S
C2647      C2652   1.409       .  A
C2647      C2656   1.399       .  A
S2648      H2664   1.406       .  S
S2650      H2661   1.407       .  S
C2652      C2653   1.406       .  A
C2652      S2657   1.805       .  S
C2653      C2654   1.407       .  A
C2653      H2658   1.083       .  S
C2654      C2655   1.418       .  A
C2655      C2656   1.394       .  A
C2655      S2659   1.802       .  S
C2656      H2660   1.084       .  S
S2657      H2662   1.407       .  S
S2659      H2663   1.405       .  S
C2665      C2666   1.400       .  A
C2665      C2670   1.398       .  A
C2665      H2675   1.084       .  S
C2666      C2671   1.476       .  S
C2666      C2667   1.410       .  A
C2667      C2668   1.397       .  A
C2667      S2672   1.804       .  S
C2668      C2669   1.405       .  A
C2668      H2673   1.084       .  S
C2669      C2670   1.418       .  A
C2670      S2674   1.802       .  S
C2671      C2676   1.407       .  A
C2671      C2680   1.401       .  A
S2672      H2688   1.407       .  S
S2674      H2685   1.407       .  S
C2676      C2677   1.401       .  A
C2676      S2681   1.806       .  S
C2677      C2678   1.408       .  A
C2677      H2682   1.083       .  S
C2678      C2679   1.415       .  A
C2679      C2680   1.395       .  A
C2679      S2683   1.805       .  S
C2680      H2684   1.084       .  S
S2681      H2686   1.407       .  S
S2683      H2687   1.408       .  S
C2689      C2690   1.400       .  A
C2689      C2694   1.395       .  A
C2689      H2699   1.084       .  S
C2690      C2695   1.470       .  S
C2690      C2691   1.411       .  A
C2691      C2692   1.398       .  A
C2691      S2696   1.805       .  S
C2692      C2693   1.402       .  A
C2692      H2697   1.084       .  S
C2693      C2694   1.410       .  A
C2694      S2698   1.802       .  S
C2695      C2700   1.404       .  A
C2695      C2704   1.399       .  A
S2696      H2712   1.403       .  S
S2698      H2709   1.406       .  S
C2700      C2701   1.401       .  A
C2700      S2705   1.807       .  S
C2701      C2702   1.406       .  A
C2701      H2706   1.078       .  S
C2702      C2703   1.418       .  A
C2703      C2704   1.396       .  A
C2703      S2707   1.804       .  S
C2704      H2708   1.084       .  S
S2705      H2710   1.405       .  S
S2707      H2711   1.407       .  S
C2713      C2714   1.399       .  A
C2713      C2718   1.399       .  A
C2713      H2723   1.083       .  S
C2714      C2719   1.474       .  S
C2714      C2715   1.409       .  A
C2715      C2716   1.400       .  A
C2715      S2720   1.803       .  S
C2716      C2717   1.405       .  A
C2716      H2721   1.084       .  S
C2717      C2718   1.414       .  A
C2718      S2722   1.805       .  S
C2719      C2724   1.407       .  A
C2719      C2728   1.400       .  A
S2720      H2736   1.405       .  S
S2722      H2733   1.407       .  S
C2724      C2725   1.401       .  A
C2724      S2729   1.806       .  S
C2725      C2726   1.405       .  A
C2725      H2730   1.083       .  S
C2726      C2727   1.416       .  A
C2727      C2728   1.399       .  A
C2727      S2731   1.803       .  S
C2728      H2732   1.084       .  S
S2729      H2734   1.407       .  S
S2731      H2735   1.406       .  S
C2737      C2738   1.403       .  A
C2737      C2742   1.405       .  A
C2737      H2747   1.084       .  S
C2738      C2743   1.483       .  S
C2738      C2739   1.410       .  A
C2739      C2740   1.396       .  A
C2739      S2744   1.805       .  S
C2740      C2741   1.408       .  A
C2740      H2745   1.083       .  S
C2741      C2742   1.418       .  A
C2742      S2746   1.801       .  S
C2743      C2748   1.409       .  A
C2743      C2752   1.402       .  A
S2744      H2760   1.405       .  S
S2746      H2757   1.407       .  S
C2748      C2749   1.402       .  A
C2748      S2753   1.808       .  S
C2749      C2750   1.408       .  A
C2749      H2754   1.083       .  S
C2750      C2751   1.417       .  A
C2751      C2752   1.403       .  A
C2751      S2755   1.803       .  S
C2752      H2756   1.084       .  S
S2753      H2758   1.407       .  S
S2755      H2759   1.407       .  S
C2761      C2762   1.403       .  A
C2761      C2766   1.403       .  A
C2761      H2771   1.084       .  S
C2762      C2767   1.474       .  S
C2762      C2763   1.409       .  A
C2763      C2764   1.393       .  A
C2763      S2768   1.805       .  S
C2764      C2765   1.403       .  A
C2764      H2769   1.081       .  S
C2765      C2766   1.415       .  A
C2766      S2770   1.803       .  S
C2767      C2772   1.408       .  A
C2767      C2776   1.398       .  A
S2768      H2784   1.405       .  S
S2770      H2781   1.407       .  S
C2772      C2773   1.405       .  A
C2772      S2777   1.805       .  S
C2773      C2774   1.406       .  A
C2773      H2778   1.083       .  S
C2774      C2775   1.415       .  A
C2775      C2776   1.394       .  A
C2775      S2779   1.803       .  S
C2776      H2780   1.084       .  S
S2777      H2782   1.407       .  S
S2779      H2783   1.407       .  S
C2785      C2786   1.401       .  A
C2785      C2790   1.402       .  A
C2785      H2795   1.084       .  S
C2786      C2791   1.476       .  S
C2786      C2787   1.409       .  A
C2787      C2788   1.396       .  A
C2787      S2792   1.803       .  S
C2788      C2789   1.405       .  A
C2788      H2793   1.084       .  S
C2789      C2790   1.417       .  A
C2790      S2794   1.803       .  S
C2791      C2796   1.407       .  A
C2791      C2800   1.402       .  A
S2792      H2808   1.406       .  S
S2794      H2805   1.407       .  S
C2796      C2797   1.398       .  A
C2796      S2801   1.807       .  S
C2797      C2798   1.404       .  A
C2797      H2802   1.083       .  S
C2798      C2799   1.416       .  A
C2799      C2800   1.402       .  A
C2799      S2803   1.803       .  S
C2800      H2804   1.084       .  S
S2801      H2806   1.407       .  S
S2803      H2807   1.407       .  S
C2809      C2810   1.402       .  A
C2809      C2814   1.399       .  A
C2809      H2819   1.084       .  S
C2810      C2815   1.476       .  S
C2810      C2811   1.410       .  A
C2811      C2812   1.397       .  A
C2811      S2816   1.803       .  S
C2812      C2813   1.402       .  A
C2812      H2817   1.084       .  S
C2813      C2814   1.413       .  A
C2814      S2818   1.805       .  S
C2815      C2820   1.407       .  A
C2815      C2824   1.400       .  A
S2816      H2832   1.406       .  S
S2818      H2829   1.401       .  S
C2820      C2821   1.402       .  A
C2820      S2825   1.806       .  S
C2821      C2822   1.406       .  A
C2821      H2826   1.083       .  S
C2822      C2823   1.417       .  A
C2823      C2824   1.398       .  A
C2823      S2827   1.804       .  S
C2824      H2828   1.084       .  S
S2825      H2830   1.407       .  S
S2827      H2831   1.407       .  S
C2833      C2834   1.401       .  A
C2833      C2838   1.401       .  A
C2833      H2843   1.084       .  S
C2834      C2839   1.479       .  S
C2834      C2835   1.411       .  A
C2835      C2836   1.396       .  A
C2835      S2840   1.805       .  S
C2836      C2837   1.407       .  A
C2836      H2841   1.083       .  S
C2837      C2838   1.420       .  A
C2838      S2842   1.802       .  S
C2839      C2844   1.409       .  A
C2839      C2848   1.401       .  A
S2840      H2856   1.406       .  S
S2842      H2853   1.404       .  S
C2844      C2845   1.403       .  A
C2844      S2849   1.806       .  S
C2845      C2846   1.404       .  A
C2845      H2850   1.083       .  S
C2846      C2847   1.415       .  A
C2847      C2848   1.396       .  A
C2847      S2851   1.805       .  S
C2848      H2852   1.084       .  S
S2849      H2854   1.407       .  S
S2851      H2855   1.407       .  S
C2857      C2858   1.398       .  A
C2857      C2862   1.398       .  A
C2857      H2867   1.084       .  S
C2858      C2863   1.476       .  S
C2858      C2859   1.411       .  A
C2859      C2860   1.400       .  A
C2859      S2864   1.804       .  S
C2860      C2861   1.407       .  A
C2860      H2865   1.084       .  S
C2861      C2862   1.416       .  A
C2862      S2866   1.796       .  S
C2863      C2868   1.408       .  A
C2863      C2872   1.400       .  A
S2864      H2880   1.405       .  S
S2866      H2877   1.408       .  S
C2868      C2869   1.401       .  A
C2868      S2873   1.808       .  S
C2869      C2870   1.406       .  A
C2869      H2874   1.083       .  S
C2870      C2871   1.415       .  A
C2871      C2872   1.399       .  A
C2871      S2875   1.801       .  S
C2872      H2876   1.084       .  S
S2873      H2878   1.407       .  S
S2875      H2879   1.407       .  S
C2881      C2882   1.401       .  A
C2881      C2886   1.398       .  A
C2881      H2891   1.084       .  S
C2882      C2887   1.470       .  S
C2882      C2883   1.409       .  A
C2883      C2884   1.394       .  A
C2883      S2888   1.804       .  S
C2884      C2885   1.403       .  A
C2884      H2889   1.084       .  S
C2885      C2886   1.416       .  A
C2886      S2890   1.805       .  S
C2887      C2892   1.405   1_655  A
C2887      C2896   1.398       .  A
S2888      H2904   1.405       .  S
S2890      H2901   1.407       .  S
C2892      C2893   1.402       .  A
C2892      S2897   1.805       .  S
C2893      C2894   1.407       .  A
C2893      H2898   1.083       .  S
C2894      C2895   1.417   1_455  A
C2895      C2896   1.394       .  A
C2895      S2899   1.804       .  S
C2896      H2900   1.084       .  S
S2897      H2902   1.407       .  S
S2899      H2903   1.407       .  S
C2905      C2906   1.401   1_455  A
C2905      C2910   1.400       .  A
C2905      H2915   1.084       .  S
C2906      C2911   1.477       .  S
C2906      C2907   1.410       .  A
C2907      C2908   1.395       .  A
C2907      S2912   1.806       .  S
C2908      C2909   1.407   1_655  A
C2908      H2913   1.084       .  S
C2909      C2910   1.419       .  A
C2910      S2914   1.802       .  S
C2911      C2916   1.410       .  A
C2911      C2920   1.400       .  A
S2912      H2928   1.406       .  S
S2914      H2925   1.407       .  S
C2916      C2917   1.404       .  A
C2916      S2921   1.806       .  S
C2917      C2918   1.405       .  A
C2917      H2922   1.083       .  S
C2918      C2919   1.413       .  A
C2919      C2920   1.393       .  A
C2919      S2923   1.805       .  S
C2920      H2924   1.084       .  S
S2921      H2926   1.407       .  S
S2923      H2927   1.407       .  S
C2929      C2930   1.400       .  A
C2929      C2934   1.394       .  A
C2929      H2939   1.084       .  S
C2930      C2935   1.472       .  S
C2930      C2931   1.413       .  A
C2931      C2932   1.401       .  A
C2931      S2936   1.807       .  S
C2932      C2933   1.405       .  A
C2932      H2937   1.084       .  S
C2933      C2934   1.413       .  A
C2934      S2938   1.804       .  S
C2935      C2940   1.407       .  A
C2935      C2944   1.400       .  A
S2936      H2952   1.402       .  S
S2938      H2949   1.407       .  S
C2940      C2941   1.400       .  A
C2940      S2945   1.806       .  S
C2941      C2942   1.403       .  A
C2941      H2946   1.082       .  S
C2942      C2943   1.416       .  A
C2943      C2944   1.398       .  A
C2943      S2947   1.805       .  S
C2944      H2948   1.084       .  S
S2945      H2950   1.406       .  S
S2947      H2951   1.407       .  S
C2953      C2954   1.401       .  A
C2953      C2958   1.398       .  A
C2953      H2963   1.084       .  S
C2954      C2959   1.473       .  S
C2954      C2955   1.410       .  A
C2955      C2956   1.397       .  A
C2955      S2960   1.806       .  S
C2956      C2957   1.404       .  A
C2956      H2961   1.084       .  S
C2957      C2958   1.414       .  A
C2958      S2962   1.803       .  S
C2959      C2964   1.407       .  A
C2959      C2968   1.398       .  A
S2960      H2976   1.406       .  S
S2962      H2973   1.407       .  S
C2964      C2965   1.403       .  A
C2964      S2969   1.805       .  S
C2965      C2966   1.407       .  A
C2965      H2970   1.083       .  S
C2966      C2967   1.416       .  A
C2967      C2968   1.393       .  A
C2967      S2971   1.804       .  S
C2968      H2972   1.084       .  S
S2969      H2974   1.407       .  S
S2971      H2975   1.406       .  S
C2977      C2978   1.403       .  A
C2977      C2982   1.400       .  A
C2977      H2987   1.084       .  S
C2978      C2983   1.477       .  S
C2978      C2979   1.412       .  A
C2979      C2980   1.399       .  A
C2979      S2984   1.808       .  S
C2980      C2981   1.405       .  A
C2980      H2985   1.084       .  S
C2981      C2982   1.417       .  A
C2982      S2986   1.805       .  S
C2983      C2988   1.408       .  A
C2983      C2992   1.402       .  A
S2984      H3000   1.402       .  S
S2986      H2997   1.407       .  S
C2988      C2989   1.402       .  A
C2988      S2993   1.807       .  S
C2989      C2990   1.405       .  A
C2989      H2994   1.083       .  S
C2990      C2991   1.413       .  A
C2991      C2992   1.401       .  A
C2991      S2995   1.802       .  S
C2992      H2996   1.084       .  S
S2993      H2998   1.406       .  S
S2995      H2999   1.407       .  S
C3001      C3002   1.399       .  A
C3001      C3006   1.394       .  A
C3001      H3011   1.084       .  S
C3002      C3007   1.472       .  S
C3002      C3003   1.412       .  A
C3003      C3004   1.400       .  A
C3003      S3008   1.804       .  S
C3004      C3005   1.403       .  A
C3004      H3009   1.084       .  S
C3005      C3006   1.413       .  A
C3006      S3010   1.805       .  S
C3007      C3012   1.408       .  A
C3007      C3016   1.401       .  A
S3008      H3024   1.405       .  S
S3010      H3021   1.407       .  S
C3012      C3013   1.399       .  A
C3012      S3017   1.807       .  S
C3013      C3014   1.403       .  A
C3013      H3018   1.083       .  S
C3014      C3015   1.414       .  A
C3015      C3016   1.398       .  A
C3015      S3019   1.806       .  S
C3016      H3020   1.084       .  S
S3017      H3022   1.407       .  S
S3019      H3023   1.405       .  S
