geometry optimzed in LAMMPS
_audit_creation_date              2020-11-30 
_audit_creation_method            'lammps2cif' 
_symmetry_space_group_name_H-M    'P1' 
_symmetry_Int_Tables_number       1 
_symmetry_cell_setting            triclinic 
loop_ 
_symmetry_equiv_pos_as_xyz 
  x,y,z 
_cell_length_a                    29.32894208 
_cell_length_b                    29.182517400551067 
_cell_length_c                    24.840409948063343 
_cell_angle_alpha                 89.19022091741861 
_cell_angle_beta                  90.05463501490158 
_cell_angle_gamma                 89.5149883786626 
loop_ 
_atom_site_label 
_atom_site_type_symbol 
_atom_site_fract_x 
_atom_site_fract_y 
_atom_site_fract_z 
_atom_site_charge 
O1          O  0.04107360  0.49467747  0.06743639    -0.67500
O2          O  0.41757915  0.49638291  0.02798012    -0.67700
O3          O  0.47439264  0.43277809  0.06801355    -0.67600
O4          O  0.47641451  0.05931393  0.01961934    -0.67600
O5          O  0.48857300  0.03278362  0.43880642    -0.67600
O6          O  0.47834687  0.41403559  0.50962310    -0.67600
O7          O  0.42090870  0.46873225  0.45628051    -0.67500
O8          O  0.04694449  0.47570465  0.47269465    -0.67700
V9          V  0.48028353  0.49498322  0.04648985     1.35200
V10         V  0.48240421  0.47347839  0.47568984     1.35200
C11         C  0.07226630  0.48826211  0.03321375     0.81700
C12         C  0.39057085  0.48665216  0.48502717     0.81800
C13         C  0.48655033  0.40180502  0.03591305     0.81700
C14         C  0.48294555  0.06306802  0.47385677     0.81600
O15         O  0.21581827  0.23724547  0.31462192    -0.67500
O16         O  0.34019058  0.23799307  0.35658869    -0.67700
O17         O  0.28405265  0.17526496  0.31740518    -0.67600
O18         O  0.27295472  0.30106980  0.35528520    -0.67600
O19         O  0.25927388  0.28015227  0.43793311    -0.67600
O20         O  0.25883989  0.15537792  0.39650194    -0.67600
O21         O  0.32131517  0.21192053  0.43579883    -0.67500
O22         O  0.19600158  0.22285454  0.39734320    -0.67700
V23         V  0.27766571  0.23769982  0.33745026     1.35200
V24         V  0.25905966  0.21816300  0.41539906     1.35200
C25         C  0.18473140  0.22945123  0.34859862     0.81700
C26         C  0.35204564  0.22300951  0.40244463     0.81800
C27         C  0.27349143  0.14394247  0.35081235     0.81700
C28         C  0.26663210  0.31188482  0.40398152     0.81600
C29         C  0.20456761  0.47570575  0.03445331     0.01800
C30         C  0.21907273  0.06203808  0.14902107     0.01800
C31         C  0.28403680  0.44433901  0.40871570     0.01800
C32         C  0.30471047  0.03215941  0.27462851     0.01800
O33         O  0.46720235  0.00895781  0.31163708    -0.67500
O34         O  0.09576625  0.00721905  0.26566928    -0.67700
O35         O  0.03811971  0.06977584  0.30422718    -0.67600
O36         O  0.02498389  0.44406795  0.26579577    -0.67600
O37         O  0.01200222  0.46516275  0.18292568    -0.67600
O38         O  0.01434635  0.09007713  0.22441717    -0.67600
O39         O  0.07738443  0.03336425  0.18612882    -0.67500
O40         O  0.44806716  0.02382365  0.22865587    -0.67700
V41         V  0.03291656  0.00757538  0.28347137     1.35200
V42         V  0.01512468  0.02747652  0.20517829     1.35200
C43         C  0.43629124  0.01607198  0.27699025     0.81700
C44         C  0.10784826  0.02272045  0.22023354     0.81800
C45         C  0.02787930  0.10121501  0.27065030     0.81700
C46         C  0.01839819  0.43336498  0.21720635     0.81600
O47         O  0.24825243  0.22255649  0.19888756    -0.67500
O48         O  0.25181525  0.35075107  0.16166809    -0.67700
O49         O  0.19368237  0.29584090  0.21267866    -0.67600
O50         O  0.30825331  0.27858606  0.15024753    -0.67600
O51         O  0.27811478  0.26962553  0.07126764    -0.67600
O52         O  0.16081766  0.27704920  0.13775091    -0.67600
O53         O  0.21588520  0.33550183  0.08768054    -0.67500
O54         O  0.22162136  0.20890092  0.11916447    -0.67700
V55         V  0.25007029  0.28647335  0.17937106     1.35200
V56         V  0.21969681  0.27280379  0.10544029     1.35200
C57         C  0.23447912  0.19389022  0.16459748     0.81700
C58         C  0.23271937  0.36479239  0.11851461     0.81800
C59         C  0.15784654  0.29009321  0.18619944     0.81700
C60         C  0.31333393  0.27347817  0.10036532     0.81600
C61         C  0.05332233  0.21405669  0.34721001     0.01800
C62         C  0.46487749  0.19342974  0.47875440     0.01800
C63         C  0.03003616  0.30064053  0.21753453     0.01800
C64         C  0.44343029  0.28784295  0.09548389     0.01800
C65         C  0.49443615  0.29139497  0.18412660    -0.09000
C66         C  0.47181045  0.28574489  0.14426635    -0.10600
C67         C  0.46727871  0.23161869  0.01633893    -0.09000
C68         C  0.45970936  0.25546974  0.05464105    -0.10600
C69         C  0.99645531  0.21454692  0.43018252    -0.09000
C70         C  0.02261760  0.21878227  0.39321201    -0.10600
C71         C  0.03830441  0.24634159  0.30431971    -0.09000
C72         C  0.03020278  0.27033630  0.26545456    -0.10600
C73         C  0.11445040  0.29949775  0.21267639    -0.12200
C74         C  0.07454114  0.29426995  0.18796444    -0.27300
H75         H  0.11523148  0.31037432  0.25435896     0.16900
H76         H  0.07436511  0.28334151  0.14619361     0.17400
C77         C  0.35971513  0.27497183  0.07787234    -0.12200
C78         C  0.39545977  0.27608711  0.11199336    -0.27300
H79         H  0.36451330  0.27938149  0.03474869     0.16900
H80         H  0.38926153  0.27020992  0.15478133     0.17400
C81         C  0.03178540  0.14997918  0.28389697    -0.12200
C82         C  0.05067700  0.16420973  0.33019615    -0.27300
H83         H  0.01869219  0.17437368  0.25428956     0.16900
H84         H  0.06305545  0.13856661  0.35901065     0.17400
C85         C  0.02010422  0.38523390  0.19982869    -0.12200
C86         C  0.02355100  0.34995768  0.23509483    -0.27300
H87         H  0.02034602  0.37862659  0.15693482     0.16900
H88         H  0.02254581  0.35707323  0.27797123     0.17400
C89         C  0.38795273  0.01794758  0.29391632    -0.12200
C90         C  0.35340995  0.02062403  0.25828619    -0.27300
H91         H  0.38068831  0.02027214  0.33669851     0.16900
H92         H  0.36117224  0.01709233  0.21567660     0.17400
C93         C  0.29306026  0.50161281  0.32494777    -0.09000
C94         C  0.28594885  0.47578207  0.36219642    -0.10600
C95         C  0.22855746  0.11258476  0.13809079    -0.12200
C96         C  0.23160485  0.14417868  0.17736154    -0.27300
H97         H  0.23175956  0.12395111  0.09635883     0.16900
H98         H  0.23048398  0.13342664  0.21938392     0.17400
C99         C  0.27599790  0.03296855  0.22631275    -0.09000
C100        C  0.25189605  0.04320078  0.18863228    -0.10600
C101        C  0.17002010  0.05653371  0.16723592    -0.12200
C102        C  0.15639284  0.02911115  0.20819379    -0.27300
H103        H  0.14414015  0.07332429  0.14227680     0.16900
H104        H  0.18085692  0.01141193  0.23402083     0.17400
C105        C  0.21992234  0.46698290  0.47944921    -0.09000
C106        C  0.24707119  0.45879469  0.44456420    -0.10600
C107        C  0.22300788  0.03563962  0.09920873    -0.09000
C108        C  0.21796794  0.00921104  0.06273204    -0.10600
C109        C  0.20842504  0.42714826  0.05713636    -0.12200
C110        C  0.22939442  0.41398635  0.10359904    -0.27300
H111        H  0.19486556  0.40078487  0.03119392     0.16900
H112        H  0.24460825  0.43882555  0.13011587     0.17400
C113        C  0.40077345  0.21848249  0.41569308    -0.12200
C114        C  0.41538375  0.19653013  0.46062687    -0.27300
H115        H  0.42473684  0.23363580  0.38753477     0.16900
H116        H  0.39015281  0.18196286  0.48787580     0.17400
C117        C  0.30293591  0.08103716  0.29516515    -0.12200
C118        C  0.27813526  0.09504631  0.33758250    -0.27300
H119        H  0.31955831  0.10693477  0.27025676     0.16900
H120        H  0.26054412  0.07055663  0.36322344     0.17400
C121        C  0.27574928  0.39587782  0.38863721    -0.12200
C122        C  0.26983909  0.35985063  0.42240102    -0.27300
H123        H  0.27552404  0.38993117  0.34547604     0.16900
H124        H  0.26926171  0.36558127  0.46553340     0.17400
C125        C  0.13695064  0.22552672  0.33047664    -0.12200
C126        C  0.10164456  0.22467996  0.36499316    -0.27300
H127        H  0.13074023  0.22111651  0.28776168     0.16900
H128        H  0.10823331  0.23039138  0.40748446     0.17400
C129        C  0.48393628  0.35354286  0.05188850    -0.12200
C130        C  0.44561387  0.33641377  0.07365031    -0.27300
H131        H  0.51340888  0.33159612  0.04505180     0.16900
H132        H  0.41574334  0.35857434  0.07711167     0.17400
C133        C  0.34268403  0.48315026  0.46757241    -0.12200
C134        C  0.32937001  0.44683638  0.43808285    -0.27300
H135        H  0.31911291  0.51093561  0.47638849     0.16900
H136        H  0.35332353  0.41860459  0.43254549     0.17400
C137        C  0.15565048  0.48451322  0.01609459    -0.12200
C138        C  0.12044321  0.48611472  0.05085514    -0.27300
H139        H  0.14862571  0.48808699  0.97321238     0.16900
H140        H  0.12714126  0.48362637  0.09380664     0.17400
C141        C  0.47912651  0.11134219  0.45730929    -0.12200
C142        C  0.47672662  0.14457076  0.49383056    -0.27300
H143        H  0.47526702  0.11957485  0.41473284     0.16900
H144        H  0.48184106  0.13564021  0.53614928     0.17400
O145        O  0.02611195  0.48604057  0.55563795    -0.67500
O146        O  0.40269364  0.50719645  0.52746528    -0.67700
O147        O  0.45509192  0.44785052  0.58216087    -0.67600
O148        O  0.47818868  0.05071264  0.52258570    -0.67600
O149        O  0.49009116  0.03853861  0.93750987    -0.67600
O150        O  0.50096362  0.41321137  0.98982288    -0.67600
O151        O  0.43587895  0.46933170  0.94976170    -0.67500
O152        O  0.06085373  0.48165724  0.98475718    -0.67700
V153        V  0.46592744  0.50414916  0.54839724     1.35200
V154        V  0.49828856  0.47591329  0.96872784     1.35200
C155        C  0.05760421  0.48048656  0.52171141     0.81700
C156        C  0.40537663  0.48161013  0.98272913     0.81800
C157        C  0.46277454  0.41153879  0.55741035     0.81700
C158        C  0.48175186  0.07010383  0.97053873     0.81600
O159        O  0.22156440  0.23964414  0.79616144    -0.67500
O160        O  0.34856697  0.24397460  0.83223369    -0.67700
O161        O  0.28971353  0.17888083  0.80753288    -0.67600
O162        O  0.28082617  0.30680881  0.81781822    -0.67600
O163        O  0.26852107  0.30100716  0.90387160    -0.67600
O164        O  0.26841871  0.16984988  0.89064257    -0.67600
O165        O  0.33023497  0.23235792  0.91595869    -0.67500
O166        O  0.20511483  0.23704452  0.88134696    -0.67700
V167        V  0.28475001  0.24243648  0.81509241     1.35200
V168        V  0.26829736  0.23547037  0.89641982     1.35200
C169        C  0.19183780  0.23677816  0.83308473     0.81700
C170        C  0.36075787  0.23580797  0.88049244     0.81800
C171        C  0.28087245  0.15236064  0.84645433     0.81700
C172        C  0.27441512  0.32606348  0.86216723     0.81600
C173        C  0.18878915  0.46702178  0.52545783     0.01800
C174        C  0.21270648  0.05762078  0.65280096     0.01800
C175        C  0.29205636  0.45183889  0.90929202     0.01800
C176        C  0.30546140  0.03741364  0.77403820     0.01800
O177        O  0.46747051  0.01150147  0.80786463    -0.67500
O178        O  0.09025197  0.01197285  0.77739817    -0.67700
O179        O  0.03119448  0.07182625  0.81858312    -0.67600
O180        O  0.02415323  0.44737989  0.77312212    -0.67600
O181        O  0.01219035  0.47065369  0.69079271    -0.67600
O182        O  0.00360206  0.09338833  0.74088057    -0.67600
O183        O  0.07075241  0.04163603  0.69993186    -0.67500
O184        O  0.44873870  0.02552358  0.72455026    -0.67700
V185        V  0.02739631  0.01025937  0.79581853     1.35200
V186        V  0.00876110  0.03158573  0.71841543     1.35200
C187        C  0.43684150  0.01946473  0.77312378     0.81700
C188        C  0.10180570  0.02938556  0.73263221     0.81800
C189        C  0.01793060  0.10360653  0.78710990     0.81700
C190        C  0.01907818  0.43802892  0.72387696     0.81600
O191        O  0.24005352  0.21984703  0.68455703    -0.67500
O192        O  0.24524747  0.34430458  0.63869103    -0.67700
O193        O  0.17998663  0.28957323  0.67788491    -0.67600
O194        O  0.30580935  0.27567967  0.64455417    -0.67600
O195        O  0.28765595  0.26217406  0.56147823    -0.67600
O196        O  0.16221055  0.26297529  0.59940205    -0.67600
O197        O  0.22016336  0.32452216  0.55997364    -0.67500
O198        O  0.22875851  0.19953513  0.60184609    -0.67700
V199        V  0.24253797  0.28176807  0.66003723     1.35200
V200        V  0.22525168  0.26250271  0.58216198     1.35200
C201        C  0.23315712  0.18851895  0.65101319     0.81700
C202        C  0.23168297  0.35551149  0.59210282     0.81800
C203        C  0.14968113  0.27844843  0.64428162     0.81700
C204        C  0.31807427  0.26944329  0.59634466     0.81600
C205        C  0.06119271  0.21702714  0.84546615     0.01800
C206        C  0.46670518  0.20257662  0.96850962     0.01800
C207        C  0.03740584  0.30647303  0.72081383     0.01800
C208        C  0.44991934  0.28424267  0.59776634     0.01800
C209        C  0.50427643  0.29241908  0.68313667    -0.09000
C210        C  0.47951172  0.28520654  0.64553456    -0.10600
C211        C  0.46818894  0.22072227  0.52707213    -0.09000
C212        C  0.46329584  0.24588662  0.56431677    -0.10600
C213        C  0.00422557  0.21535775  0.92893045    -0.09000
C214        C  0.03199008  0.22008756  0.89346414    -0.10600
C215        C  0.04426425  0.24959540  0.80446280    -0.09000
C216        C  0.03648061  0.27539255  0.76739338    -0.10600
C217        C  0.10075901  0.28316244  0.65667945    -0.12200
C218        C  0.08630844  0.30528723  0.70077569    -0.27300
H219        H  0.07668660  0.26731052  0.62961967     0.16900
H220        H  0.11171064  0.32006737  0.72722736     0.17400
C221        C  0.36634525  0.27247094  0.57984805    -0.12200
C222        C  0.40042124  0.27934000  0.61518058    -0.27300
H223        H  0.37403858  0.27016089  0.53719690     0.16900
H224        H  0.39237219  0.28098301  0.65786033     0.17400
C225        C  0.01984951  0.15148631  0.80366117    -0.12200
C226        C  0.05824310  0.16845924  0.82505321    -0.27300
H227        H  0.99030056  0.17344283  0.79658427     0.16900
H228        H  0.08814232  0.14625002  0.82850654     0.17400
C229        C  0.02323750  0.39054050  0.70470081    -0.12200
C230        C  0.02567220  0.35452709  0.73902287    -0.27300
H231        H  0.02668085  0.38513412  0.66167430     0.16900
H232        H  0.02098888  0.36044424  0.78186182     0.17400
C233        C  0.38889891  0.02404314  0.79039364    -0.12200
C234        C  0.35368077  0.02630915  0.75562011    -0.27300
H235        H  0.38243080  0.02756105  0.83324277     0.16900
H236        H  0.36019688  0.02149664  0.71293137     0.17400
C237        C  0.28885581  0.50033517  0.81662202    -0.09000
C238        C  0.28563487  0.47655899  0.85699958    -0.10600
C239        C  0.22381523  0.10605230  0.63476313    -0.12200
C240        C  0.22790894  0.14068167  0.66957407    -0.27300
H241        H  0.22767496  0.11326041  0.59188913     0.16900
H242        H  0.22521160  0.13393878  0.71259978     0.17400
C243        C  0.27392653  0.03492242  0.72834348    -0.09000
C244        C  0.24676555  0.04144633  0.69254632    -0.10600
C245        C  0.16389982  0.05588086  0.67334539    -0.12200
C246        C  0.15047576  0.03478432  0.71921377    -0.27300
H247        H  0.13786969  0.06983866  0.64634256     0.16900
H248        H  0.17527057  0.01986606  0.74691598     0.17400
C249        C  0.23494925  0.47761873  0.98724311    -0.09000
C250        C  0.26003018  0.47036918  0.94961562    -0.10600
C251        C  0.21436668  0.02766951  0.60619163    -0.09000
C252        C  0.20793018  0.00235783  0.56925182    -0.10600
C253        C  0.19124870  0.41955767  0.55036229    -0.12200
C254        C  0.22881525  0.40352851  0.57548344    -0.27300
H255        H  0.16229117  0.39682929  0.54569082     0.16900
H256        H  0.25743766  0.42579649  0.58356861     0.17400
C257        C  0.40910464  0.22883695  0.89597922    -0.12200
C258        C  0.41948897  0.20852511  0.94390835    -0.27300
H259        H  0.43552563  0.24001736  0.86835180     0.16900
H260        H  0.39159854  0.19716526  0.96957878     0.17400
C261        C  0.30351615  0.08667483  0.79240776    -0.12200
C262        C  0.28538646  0.10238312  0.83884414    -0.27300
H263        H  0.31568952  0.11144394  0.76267610     0.16900
H264        H  0.27280512  0.07918954  0.86983761     0.17400
C265        C  0.28413073  0.40029329  0.90766807    -0.12200
C266        C  0.27503190  0.37668422  0.86303608    -0.27300
H267        H  0.28874239  0.38123680  0.94530667     0.16900
H268        H  0.27216569  0.39447108  0.82449739     0.17400
C269        C  0.14306096  0.23087814  0.82021246    -0.12200
C270        C  0.11044700  0.22840607  0.85872857    -0.27300
H271        H  0.13384898  0.22612965  0.77827741     0.16900
H272        H  0.11971911  0.23387878  0.90054657     0.17400
C273        C  0.45245637  0.36862999  0.58589560    -0.12200
C274        C  0.45746945  0.32737800  0.56436522    -0.27300
H275        H  0.44059590  0.37111203  0.62723368     0.16900
H276        H  0.46923092  0.32506462  0.52290157     0.17400
C277        C  0.35652206  0.47847706  0.96982029    -0.12200
C278        C  0.34172090  0.45811626  0.92482732    -0.27300
H279        H  0.33264681  0.49216978  0.99891311     0.16900
H280        H  0.36689165  0.44438026  0.89706704     0.17400
C281        C  0.14068582  0.47691474  0.50588178    -0.12200
C282        C  0.10525274  0.47803312  0.54014128    -0.27300
H283        H  0.13435874  0.48095561  0.46288884     0.16900
H284        H  0.11142068  0.47496640  0.58321071     0.17400
C285        C  0.47715579  0.11817420  0.95174484    -0.12200
C286        C  0.47380146  0.15307084  0.98648658    -0.27300
H287        H  0.47597917  0.12510870  0.90865325     0.16900
H288        H  0.47618241  0.14544048  0.02944614     0.17400
O289        O  0.04068955  0.99635773  0.06255878    -0.67500
O290        O  0.41315471  0.99339205  0.02211953    -0.67700
O291        O  0.47366834  0.93452991  0.06384664    -0.67600
O292        O  0.48478743  0.55791041  0.02746143    -0.67600
O293        O  0.48477553  0.53286417  0.44060678    -0.67600
O294        O  0.48841624  0.90735189  0.47795236    -0.67600
O295        O  0.42553324  0.96724278  0.44271307    -0.67500
O296        O  0.04716517  0.97472280  0.49467782    -0.67700
V297        V  0.47581743  0.99647999  0.04038352     1.35200
V298        V  0.48849371  0.97044526  0.46042132     1.35200
C299        C  0.07118825  0.98951947  0.02761843     0.81700
C300        C  0.39594797  0.97869214  0.47730996     0.81800
C301        C  0.48668921  0.90339881  0.03244360     0.81700
C302        C  0.47971931  0.56824336  0.46939703     0.81600
O303        O  0.21743974  0.73281035  0.29782540    -0.67500
O304        O  0.34385193  0.74210448  0.33407780    -0.67700
O305        O  0.28727992  0.67461297  0.31251401    -0.67600
O306        O  0.27448402  0.80244363  0.31649429    -0.67600
O307        O  0.26279896  0.79893737  0.40281627    -0.67600
O308        O  0.26464181  0.66767105  0.39539729    -0.67600
O309        O  0.32580999  0.73157757  0.41809798    -0.67500
O310        O  0.20030860  0.73361036  0.38268044    -0.67700
V311        V  0.28030171  0.73813543  0.31686589     1.35200
V312        V  0.26361299  0.73334407  0.39827225     1.35200
C313        C  0.18743207  0.73115459  0.33433260     0.81700
C314        C  0.35625671  0.73492173  0.38243282     0.81800
C315        C  0.27850174  0.64918672  0.35243082     0.81700
C316        C  0.26787754  0.82283840  0.36005838     0.81600
C317        C  0.20270501  0.97290589  0.02616612     0.01800
C318        C  0.21974128  0.56393982  0.16026681     0.01800
C319        C  0.28238835  0.94881945  0.40571506     0.01800
C320        C  0.30882845  0.53498791  0.28425528     0.01800
O321        O  0.47109880  0.50816733  0.31610551    -0.67500
O322        O  0.09401655  0.50356175  0.26196314    -0.67700
O323        O  0.04005802  0.56907283  0.30288857    -0.67600
O324        O  0.02902171  0.94453164  0.26534703    -0.67600
O325        O  0.01591836  0.96553498  0.18247103    -0.67600
O326        O  0.01216152  0.58959793  0.22503304    -0.67600
O327        O  0.07408655  0.53254034  0.18424029    -0.67500
O328        O  0.45038005  0.52260879  0.23353991    -0.67700
V329        V  0.03183125  0.50692360  0.28313625     1.35200
V330        V  0.01211136  0.52705868  0.20568375     1.35200
C331        C  0.43957642  0.51529014  0.28221224     0.81700
C332        C  0.10519356  0.51912713  0.21620234     0.81800
C333        C  0.02817457  0.60062447  0.27017751     0.81700
C334        C  0.02268432  0.93377523  0.21671977     0.81600
O335        O  0.25234584  0.72556332  0.19916295    -0.67500
O336        O  0.25186533  0.85258635  0.15765177    -0.67700
O337        O  0.19547906  0.79731735  0.21074309    -0.67600
O338        O  0.31022827  0.78193850  0.14873115    -0.67600
O339        O  0.28053559  0.76917996  0.07033478    -0.67600
O340        O  0.16285992  0.77614853  0.13661750    -0.67600
O341        O  0.21677621  0.83439724  0.08406579    -0.67500
O342        O  0.22500041  0.70881753  0.12074557    -0.67700
V343        V  0.25201149  0.78884215  0.17754649     1.35200
V344        V  0.22190453  0.77226329  0.10433726     1.35200
C345        C  0.23844442  0.69561138  0.16666616     0.81700
C346        C  0.23262045  0.86494535  0.11397315     0.81800
C347        C  0.15971602  0.78999652  0.18475524     0.81700
C348        C  0.31559185  0.77488022  0.09930377     0.81600
C349        C  0.05639569  0.71341561  0.34552486     0.01800
C350        C  0.46480758  0.70073277  0.46613284     0.01800
C351        C  0.03185824  0.80062115  0.21694454     0.01800
C352        C  0.44555065  0.79008745  0.09651091     0.01800
C353        C  0.49732041  0.79276760  0.18417677    -0.09000
C354        C  0.47335091  0.78859379  0.14538320    -0.10600
C355        C  0.47256012  0.73055411  0.02297270    -0.09000
C356        C  0.46315455  0.75664490  0.05828215    -0.10600
C357        C  0.00409584  0.71198875  0.43344826    -0.09000
C358        C  0.02851535  0.71730533  0.39465757    -0.10600
C359        C  0.03900675  0.74580498  0.30371761    -0.09000
C360        C  0.03112747  0.77012497  0.26492146    -0.10600
C361        C  0.11627696  0.79871862  0.21157936    -0.12200
C362        C  0.07624417  0.79322576  0.18729732    -0.27300
H363        H  0.11718433  0.81002558  0.25308750     0.16900
H364        H  0.07587043  0.78206468  0.14561941     0.17400
C365        C  0.36219771  0.77608115  0.07741048    -0.12200
C366        C  0.39745419  0.77825523  0.11223107    -0.27300
H367        H  0.36753545  0.77938334  0.03425807     0.16900
H368        H  0.39070376  0.77336129  0.15505881     0.17400
C369        C  0.03265522  0.64937980  0.28324860    -0.12200
C370        C  0.05334120  0.66359306  0.32845274    -0.27300
H371        H  0.01816975  0.67379611  0.25457059     0.16900
H372        H  0.06721738  0.63794640  0.35630174     0.17400
C373        C  0.02449655  0.88558782  0.19930503    -0.12200
C374        C  0.02661118  0.85013994  0.23454262    -0.27300
H375        H  0.02506178  0.87902590  0.15638567     0.16900
H376        H  0.02516558  0.85719946  0.27740383     0.17400
C377        C  0.39176561  0.51812258  0.30033835    -0.12200
C378        C  0.35657806  0.52235397  0.26570133    -0.27300
H379        H  0.38551651  0.52024514  0.34337807     0.16900
H380        H  0.36304359  0.51914742  0.22276613     0.17400
C381        C  0.28725007  0.99795633  0.31443984    -0.09000
C382        C  0.27905420  0.97357380  0.35320943    -0.10600
C383        C  0.23079247  0.61345767  0.14555906    -0.12200
C384        C  0.23557423  0.64664342  0.18254450    -0.27300
H385        H  0.23324258  0.62284101  0.10310682     0.16900
H386        H  0.23505184  0.63786373  0.22516771     0.17400
C387        C  0.27766726  0.53623665  0.23778787    -0.09000
C388        C  0.25220464  0.54603435  0.20105958    -0.10600
C389        C  0.17120391  0.56095374  0.18116583    -0.12200
C390        C  0.15339880  0.52170948  0.20067134    -0.27300
H391        H  0.14949328  0.59136065  0.17883893     0.16900
H392        H  0.17483912  0.49149303  0.20641580     0.17400
C393        C  0.22177091  0.97285053  0.48088211    -0.09000
C394        C  0.24886168  0.96735821  0.44460579    -0.10600
C395        C  0.22252281  0.53571378  0.11165555    -0.09000
C396        C  0.21794919  0.51040093  0.07402627    -0.10600
C397        C  0.20534145  0.92542059  0.05190423    -0.12200
C398        C  0.22840609  0.91364436  0.09736192    -0.27300
H399        H  0.18993790  0.89835865  0.02849346     0.16900
H400        H  0.24527213  0.93921208  0.12141296     0.17400
C401        C  0.40487121  0.72856762  0.39722037    -0.12200
C402        C  0.41660105  0.70781501  0.44447666    -0.27300
H403        H  0.43062943  0.73967204  0.36868139     0.16900
H404        H  0.38944927  0.69634602  0.47114888     0.17400
C405        C  0.30914055  0.58338259  0.30509810    -0.12200
C406        C  0.28450900  0.59930025  0.34702142    -0.27300
H407        H  0.32606984  0.60804816  0.27874849     0.16900
H408        H  0.26672678  0.57641335  0.37449812     0.17400
C409        C  0.27426125  0.89751451  0.40406602    -0.12200
C410        C  0.26777406  0.87339531  0.35930496    -0.27300
H411        H  0.27708168  0.87890503  0.44226568     0.16900
H412        H  0.26667099  0.89061998  0.32029075     0.17400
C413        C  0.13887523  0.72440438  0.32068712    -0.12200
C414        C  0.10570486  0.72472631  0.35832564    -0.27300
H415        H  0.13027814  0.71704725  0.27915992     0.16900
H416        H  0.11468900  0.73254969  0.39969046     0.17400
C417        C  0.48535534  0.85528764  0.04982907    -0.12200
C418        C  0.44758084  0.83817922  0.07303280    -0.27300
H419        H  0.51499049  0.83359857  0.04287213     0.16900
H420        H  0.41757398  0.86019019  0.07629431     0.17400
C421        C  0.34676585  0.97650569  0.46572011    -0.12200
C422        C  0.33166305  0.95412905  0.42250267    -0.27300
H423        H  0.32313462  0.99202936  0.49383565     0.16900
H424        H  0.35672796  0.93857384  0.39589586     0.17400
C425        C  0.15387113  0.98259592  0.00847735    -0.12200
C426        C  0.11954822  0.98704821  0.04406319    -0.27300
H427        H  0.14610730  0.98430535  0.96564947     0.16900
H428        H  0.12705142  0.98624931  0.08690750     0.17400
C429        C  0.47673394  0.61558777  0.44717385    -0.12200
C430        C  0.47268435  0.65093208  0.48174521    -0.27300
H431        H  0.47540029  0.62142206  0.40394110     0.16900
H432        H  0.47528421  0.64341366  0.52471478     0.17400
O433        O  0.03068892  0.00165035  0.57342366    -0.67500
O434        O  0.40938352  0.99131209  0.52292493    -0.67700
O435        O  0.46531402  0.92483163  0.55830945    -0.67600
O436        O  0.47484274  0.56259806  0.51929548    -0.67600
O437        O  0.49604001  0.53781888  0.94454953    -0.67600
O438        O  0.50021727  0.91451111  0.98582649    -0.67600
O439        O  0.43304222  0.96695713  0.94414791    -0.67500
O440        O  0.05893491  0.98266937  0.97952479    -0.67700
V441        V  0.47237553  0.98749760  0.53946583     1.35200
V442        V  0.49497383  0.97686127  0.96316892     1.35200
C443        C  0.06049344  0.98788214  0.54000054     0.81700
C444        C  0.40188477  0.97723135  0.97719593     0.81800
C445        C  0.47497301  0.89471738  0.52390513     0.81700
C446        C  0.48988070  0.56907570  0.97847164     0.81600
O447        O  0.22253443  0.74077717  0.81494485    -0.67500
O448        O  0.34767225  0.74035280  0.85285707    -0.67700
O449        O  0.28949602  0.67780073  0.81649236    -0.67600
O450        O  0.28105819  0.80398330  0.85277499    -0.67600
O451        O  0.26863631  0.78428224  0.93612737    -0.67600
O452        O  0.26652249  0.65912880  0.89693927    -0.67600
O453        O  0.33013000  0.71592686  0.93319621    -0.67500
O454        O  0.20423324  0.72690542  0.89832663    -0.67700
V455        V  0.28469539  0.74052656  0.83579633     1.35200
V456        V  0.26758487  0.72210624  0.91463021     1.35200
C457        C  0.19213413  0.73336031  0.84984311     0.81700
C458        C  0.36028331  0.72633468  0.89879961     0.81800
C459        C  0.27923167  0.64700389  0.85071841     0.81700
C460        C  0.27551194  0.81543960  0.90136454     0.81600
C461        C  0.19208625  0.96979416  0.52901673     0.01800
C462        C  0.21173859  0.55579782  0.64969251     0.01800
C463        C  0.29032023  0.94756119  0.90014666     0.01800
C464        C  0.30238878  0.53357564  0.77346899     0.01800
O465        O  0.46469811  0.51301663  0.81084948    -0.67500
O466        O  0.09003891  0.51077064  0.77508019    -0.67700
O467        O  0.03198145  0.57119542  0.81691279    -0.67600
O468        O  0.02510487  0.94776974  0.77557377    -0.67600
O469        O  0.01360542  0.97056612  0.69299404    -0.67600
O470        O  0.00458745  0.59344432  0.73937757    -0.67600
O471        O  0.07050757  0.54072951  0.69775983    -0.67500
O472        O  0.44668248  0.52724744  0.72735626    -0.67700
V473        V  0.02731047  0.50973646  0.79378744     1.35200
V474        V  0.00855503  0.53163102  0.71660704     1.35200
C475        C  0.43431316  0.52041823  0.77559852     0.81700
C476        C  0.10152427  0.52813059  0.73029808     0.81800
C477        C  0.01918928  0.60331224  0.78560909     0.81700
C478        C  0.02073567  0.93816929  0.72632407     0.81600
O479        O  0.23932833  0.71836993  0.68361090    -0.67500
O480        O  0.24865496  0.84324334  0.63825684    -0.67700
O481        O  0.18186819  0.79035947  0.67757190    -0.67600
O482        O  0.30669145  0.77193723  0.64424487    -0.67600
O483        O  0.28822669  0.76072580  0.56072064    -0.67600
O484        O  0.16303200  0.76399979  0.59930193    -0.67600
O485        O  0.22198300  0.82471582  0.55988252    -0.67500
O486        O  0.22830282  0.69893200  0.60052995    -0.67700
V487        V  0.24387827  0.78048245  0.65952518     1.35200
V488        V  0.22591246  0.76226766  0.58155538     1.35200
C489        C  0.23241287  0.68731304  0.64958653     0.81700
C490        C  0.23476202  0.85529149  0.59194064     0.81800
C491        C  0.15118580  0.77978395  0.64429877     0.81700
C492        C  0.31876312  0.76594957  0.59600676     0.81600
C493        C  0.06132812  0.71552694  0.84869364     0.01800
C494        C  0.47224912  0.70003357  0.97703990     0.01800
C495        C  0.04034556  0.80668139  0.72364805     0.01800
C496        C  0.44947137  0.78100965  0.59954589     0.01800
C497        C  0.50604942  0.78656703  0.68282906    -0.09000
C498        C  0.48028247  0.77831163  0.64627821    -0.10600
C499        C  0.46838896  0.72787767  0.51563447    -0.09000
C500        C  0.46436146  0.74951951  0.55657033    -0.10600
C501        C  0.00229135  0.71294707  0.92952579    -0.09000
C502        C  0.02995251  0.71787118  0.89430110    -0.10600
C503        C  0.04694064  0.74927662  0.80736263    -0.09000
C504        C  0.03973098  0.77538222  0.77027969    -0.10600
C505        C  0.10264031  0.78519858  0.65743142    -0.12200
C506        C  0.08904465  0.80557297  0.70310029    -0.27300
H507        H  0.07820416  0.77076824  0.62975434     0.16900
H508        H  0.11485733  0.81906548  0.72995662     0.17400
C509        C  0.36697727  0.76822945  0.58009595    -0.12200
C510        C  0.40118944  0.76945152  0.61627774    -0.27300
H511        H  0.37442469  0.77234346  0.53745705     0.16900
H512        H  0.39365237  0.76419985  0.65879318     0.17400
C513        C  0.02146902  0.65115713  0.80251821    -0.12200
C514        C  0.05904797  0.66739512  0.82663592    -0.27300
H515        H  0.99257097  0.67364350  0.79402543     0.16900
H516        H  0.08849399  0.64477706  0.83165009     0.17400
C517        C  0.02602931  0.89070976  0.70742627    -0.12200
C518        C  0.02844206  0.85472195  0.74182397    -0.27300
H519        H  0.03026652  0.88532595  0.66453492     0.16900
H520        H  0.02322918  0.86056900  0.78456702     0.17400
C521        C  0.38596538  0.52331558  0.79178406    -0.12200
C522        C  0.35119839  0.52365931  0.75624601    -0.27300
H523        H  0.37872758  0.52718403  0.83440160     0.16900
H524        H  0.35853284  0.51847981  0.71381238     0.17400
C525        C  0.29131176  0.00446340  0.81590662    -0.09000
C526        C  0.28653847  0.97825474  0.85325597    -0.10600
C527        C  0.22352276  0.60445938  0.63233100    -0.12200
C528        C  0.22710785  0.63906302  0.66744893    -0.27300
H529        H  0.22774312  0.61194754  0.58957368     0.16900
H530        H  0.22395681  0.63197779  0.71035968     0.17400
C531        C  0.27166087  0.53070659  0.72654034    -0.09000
C532        C  0.24577705  0.53827425  0.68935950    -0.10600
C533        C  0.16329108  0.55498334  0.67119975    -0.12200
C534        C  0.15004670  0.53305649  0.71658011    -0.27300
H535        H  0.13722015  0.57009781  0.64509055     0.16900
H536        H  0.17475996  0.51700849  0.74351432     0.17400
C537        C  0.23226695  0.97118752  0.97847233    -0.09000
C538        C  0.25720686  0.96266725  0.94120605    -0.10600
C539        C  0.21123803  0.52631871  0.60214420    -0.09000
C540        C  0.20315679  0.50132058  0.56504714    -0.10600
C541        C  0.19536125  0.92111020  0.55103978    -0.12200
C542        C  0.23281046  0.90382009  0.57560123    -0.27300
H543        H  0.16621963  0.89873985  0.54572290     0.16900
H544        H  0.26150725  0.92566694  0.58477434     0.17400
C545        C  0.40913560  0.72234562  0.91146537    -0.12200
C546        C  0.42347403  0.70111846  0.95683172    -0.27300
H547        H  0.43315032  0.73774488  0.88352864     0.16900
H548        H  0.39808144  0.68652506  0.98387944     0.17400
C549        C  0.29960924  0.58328027  0.79109086    -0.12200
C550        C  0.28214553  0.59788113  0.83797889    -0.27300
H551        H  0.31139929  0.60880593  0.76203810     0.16900
H552        H  0.26972226  0.57371324  0.86799709     0.17400
C553        C  0.28032096  0.89888324  0.88308355    -0.12200
C554        C  0.27921165  0.86356090  0.91841817    -0.27300
H555        H  0.27527138  0.89206174  0.84052407     0.16900
H556        H  0.28289335  0.87006516  0.96118789     0.17400
C557        C  0.14423457  0.72970461  0.83273486    -0.12200
C558        C  0.10940544  0.72568706  0.86764737    -0.27300
H559        H  0.13754228  0.72800368  0.78975321     0.16900
H560        H  0.11611142  0.72856933  0.91056165     0.17400
C561        C  0.47094340  0.84584261  0.53620497    -0.12200
C562        C  0.45057067  0.83072414  0.58140014    -0.27300
H563        H  0.48573711  0.82233880  0.50751215     0.16900
H564        H  0.43666005  0.85571550  0.60922693     0.17400
C565        C  0.35333245  0.97088824  0.96442016    -0.12200
C566        C  0.33961203  0.95056962  0.91887171    -0.27300
H567        H  0.32873692  0.98423477  0.99289558     0.16900
H568        H  0.36544755  0.93808114  0.89115000     0.17400
C569        C  0.14239673  0.98070956  0.51524338    -0.12200
C570        C  0.10961077  0.98491145  0.55360473    -0.27300
H571        H  0.13277222  0.98357815  0.47301627     0.16900
H572        H  0.11895286  0.98387363  0.59594079     0.17400
C573        C  0.48628813  0.61708057  0.96040516    -0.12200
C574        C  0.48396046  0.65176391  0.99536992    -0.27300
H575        H  0.48273323  0.62401963  0.91750069     0.16900
H576        H  0.48854393  0.64460143  0.03815918     0.17400
O577        O  0.54235145  0.49397257  0.06828071    -0.67500
O578        O  0.91649470  0.49455291  0.02604579    -0.67700
O579        O  0.97379370  0.43249273  0.06790816    -0.67600
O580        O  0.98119625  0.05876652  0.02099885    -0.67600
O581        O  0.98735190  0.03255449  0.44538650    -0.67600
O582        O  0.98404416  0.40932994  0.47270206    -0.67600
O583        O  0.92212961  0.46809467  0.43271735    -0.67500
O584        O  0.54549336  0.47562796  0.49093425    -0.67700
V585        V  0.97904360  0.49456216  0.04501320     1.35200
V586        V  0.98416899  0.47231271  0.45373771     1.35200
C587        C  0.57311896  0.48791977  0.03348302     0.81700
C588        C  0.89145070  0.48181723  0.46458624     0.81800
C589        C  0.98659777  0.40116849  0.03657018     0.81700
C590        C  0.98089220  0.06754862  0.47438715     0.81600
O591        O  0.71197652  0.23920179  0.31129505    -0.67500
O592        O  0.83746075  0.24319603  0.34963889    -0.67700
O593        O  0.78208064  0.17980706  0.31076718    -0.67600
O594        O  0.76793364  0.30392522  0.35019797    -0.67600
O595        O  0.75860643  0.28235270  0.43354215    -0.67600
O596        O  0.75662225  0.15825168  0.38925628    -0.67600
O597        O  0.82055272  0.21410180  0.42804413    -0.67500
O598        O  0.69457405  0.22561471  0.39494804    -0.67700
V599        V  0.77441027  0.24132500  0.33194399     1.35200
V600        V  0.75788754  0.22061620  0.41009498     1.35200
C601        C  0.68191694  0.23164974  0.34668617     0.81700
C602        C  0.85049034  0.22699143  0.39459597     0.81800
C603        C  0.77066204  0.14803798  0.34285545     0.81700
C604        C  0.76298731  0.31432276  0.39907536     0.81600
C605        C  0.70464381  0.47520611  0.03266336     0.01800
C606        C  0.71566639  0.06568611  0.15451021     0.01800
C607        C  0.77839509  0.44579549  0.39971775     0.01800
C608        C  0.80948490  0.03750634  0.27308472     0.01800
O609        O  0.97080346  0.00807768  0.30473357    -0.67500
O610        O  0.59232486  0.01189843  0.27257259    -0.67700
O611        O  0.53289296  0.07265586  0.31099093    -0.67600
O612        O  0.52922362  0.44657151  0.27275354    -0.67600
O613        O  0.51646248  0.46938773  0.19044405    -0.67600
O614        O  0.50836201  0.09253294  0.23134519    -0.67600
O615        O  0.57353770  0.03798577  0.19316343    -0.67500
O616        O  0.95192761  0.02343657  0.22174499    -0.67700
V617        V  0.52940959  0.01044584  0.29021093     1.35200
V618        V  0.51119565  0.03015155  0.21200020     1.35200
C619        C  0.94014085  0.01643531  0.27013126     0.81700
C620        C  0.60425639  0.02776303  0.22724768     0.81800
C621        C  0.52193618  0.10386020  0.27741050     0.81700
C622        C  0.52310070  0.43685608  0.22377128     0.81600
O623        O  0.74749810  0.22549762  0.20166093    -0.67500
O624        O  0.75285492  0.35286175  0.16207845    -0.67700
O625        O  0.69442567  0.29968763  0.21554942    -0.67600
O626        O  0.80762555  0.27953753  0.15025486    -0.67600
O627        O  0.77577029  0.27065342  0.07220837    -0.67600
O628        O  0.66005554  0.27976820  0.14202137    -0.67600
O629        O  0.71472499  0.33725217  0.08975883    -0.67500
O630        O  0.71961038  0.21126806  0.12267665    -0.67700
V631        V  0.75015533  0.28894648  0.18092467     1.35200
V632        V  0.71815637  0.27483006  0.10809905     1.35200
C633        C  0.73269566  0.19674074  0.16818235     0.81700
C634        C  0.73292343  0.36661677  0.11939886     0.81800
C635        C  0.65801902  0.29325871  0.19034990     0.81700
C636        C  0.81163676  0.27402013  0.10026226     0.81600
C637        C  0.55087268  0.21597412  0.35215884     0.01800
C638        C  0.96370214  0.19895572  0.47104798     0.01800
C639        C  0.53017559  0.30356752  0.22261021     0.01800
C640        C  0.94186182  0.28638405  0.09275718     0.01800
C641        C  0.99401762  0.28750187  0.18017093    -0.09000
C642        C  0.97059236  0.28264367  0.14094510    -0.10600
C643        C  0.96690392  0.23098455  0.01327524    -0.09000
C644        C  0.95799995  0.25486807  0.05108715    -0.10600
C645        C  0.49720741  0.21107294  0.43804592    -0.09000
C646        C  0.52175794  0.21877411  0.40007736    -0.10600
C647        C  0.53505456  0.24890775  0.30997846    -0.09000
C648        C  0.52866344  0.27317559  0.27072169    -0.10600
C649        C  0.61489680  0.30215120  0.21790158    -0.12200
C650        C  0.57486005  0.29610463  0.19373872    -0.27300
H651        H  0.61596390  0.31365428  0.25930245     0.16900
H652        H  0.57467488  0.28465449  0.15217519     0.17400
C653        C  0.85762010  0.27464018  0.07642466    -0.12200
C654        C  0.89396186  0.27459228  0.10966261    -0.27300
H655        H  0.86170705  0.27968979  0.03328497     0.16900
H656        H  0.88828263  0.26789796  0.15240774     0.17400
C657        C  0.52552837  0.15254137  0.29044999    -0.12200
C658        C  0.54806113  0.16654225  0.33437750    -0.27300
H659        H  0.50973799  0.17694233  0.26271782     0.16900
H660        H  0.56295452  0.14078782  0.36136984     0.17400
C661        C  0.52457777  0.38889917  0.20529778    -0.12200
C662        C  0.52495247  0.35310219  0.24014691    -0.27300
H663        H  0.52606542  0.38278918  0.16229883     0.16900
H664        H  0.52246794  0.35992598  0.28300549     0.17400
C665        C  0.89230301  0.02056803  0.28748709    -0.12200
C666        C  0.85715697  0.02626801  0.25299030    -0.27300
H667        H  0.88595217  0.02151641  0.33057783     0.16900
H668        H  0.86332512  0.02429891  0.20989194     0.17400
C669        C  0.79020929  0.50375978  0.31670931    -0.09000
C670        C  0.78011423  0.47764638  0.35301414    -0.10600
C671        C  0.72510400  0.11588195  0.14286812    -0.12200
C672        C  0.72897205  0.14750195  0.18180559    -0.27300
H673        H  0.72810505  0.12693366  0.10098096     0.16900
H674        H  0.72800865  0.13712593  0.22394450     0.17400
C675        C  0.77699755  0.03846553  0.22809014    -0.09000
C676        C  0.74954036  0.04741711  0.19328319    -0.10600
C677        C  0.66659729  0.06039071  0.17303068    -0.12200
C678        C  0.65298535  0.03460715  0.21534566    -0.27300
H679        H  0.64063891  0.07606236  0.14721735     0.16900
H680        H  0.67768593  0.01829423  0.24209564     0.17400
C681        C  0.71816537  0.46562241  0.47739984    -0.09000
C682        C  0.74389340  0.46051166  0.43973768    -0.10600
C683        C  0.71934334  0.03934723  0.10485108    -0.09000
C684        C  0.71452763  0.01320594  0.06821419    -0.10600
C685        C  0.70744873  0.42775243  0.05798102    -0.12200
C686        C  0.73023134  0.41550908  0.10340644    -0.27300
H687        H  0.69195508  0.40101307  0.03412459     0.16900
H688        H  0.74748090  0.44067309  0.12769406     0.17400
C689        C  0.89953007  0.22301600  0.40719243    -0.12200
C690        C  0.91438702  0.20151925  0.45237914    -0.27300
H691        H  0.92336804  0.23836456  0.37900150     0.16900
H692        H  0.88927769  0.18712405  0.47990922     0.17400
C693        C  0.80871655  0.08475463  0.29742985    -0.12200
C694        C  0.77296999  0.10035911  0.32594961    -0.27300
H695        H  0.83738835  0.10741644  0.29000631     0.16900
H696        H  0.74494072  0.07790886  0.33657188     0.17400
C697        C  0.76746261  0.39779359  0.38109449    -0.12200
C698        C  0.76468317  0.36231531  0.41634043    -0.27300
H699        H  0.76440933  0.39146181  0.33818721     0.16900
H700        H  0.76700227  0.36858166  0.45928913     0.17400
C701        C  0.63365007  0.22741975  0.33108315    -0.12200
C702        C  0.59973416  0.22643930  0.36755990    -0.27300
H703        H  0.62587848  0.22286086  0.28875404     0.16900
H704        H  0.60784747  0.23205549  0.40970083     0.17400
C705        C  0.98358390  0.35292026  0.05271904    -0.12200
C706        C  0.94459120  0.33545431  0.07246364    -0.27300
H707        H  0.01321454  0.33097721  0.04679410     0.16900
H708        H  0.91458926  0.35751477  0.07512478     0.17400
C709        C  0.84345109  0.48189998  0.44852074    -0.12200
C710        C  0.82566363  0.44534028  0.42429279    -0.27300
H711        H  0.82255008  0.51194233  0.45650646     0.16900
H712        H  0.84702649  0.41493173  0.41975190     0.17400
C713        C  0.65587707  0.48404332  0.01459104    -0.12200
C714        C  0.62131855  0.48629937  0.05013408    -0.27300
H715        H  0.64838804  0.48658583  0.97173190     0.16900
H716        H  0.62864317  0.48464605  0.09302439     0.17400
C717        C  0.97835877  0.11482736  0.45257935    -0.12200
C718        C  0.97550512  0.15018176  0.48723007    -0.27300
H719        H  0.97505945  0.12057010  0.40946126     0.16900
H720        H  0.98047898  0.14322387  0.53002251     0.17400
O721        O  0.52892471  0.50068111  0.57047787    -0.67500
O722        O  0.90291884  0.49556555  0.51050465    -0.67700
O723        O  0.95604641  0.42794254  0.55048523    -0.67600
O724        O  0.97398024  0.06151970  0.52385746    -0.67600
O725        O  0.99201759  0.03731090  0.93853780    -0.67600
O726        O  0.00177722  0.41215304  0.99070780    -0.67600
O727        O  0.93566674  0.46576116  0.94899843    -0.67500
O728        O  0.56132182  0.48157411  0.98515496    -0.67700
V729        V  0.96493337  0.49030575  0.53143077     1.35200
V730        V  0.99787023  0.47436793  0.96798906     1.35200
C731        C  0.55876183  0.48679631  0.53715701     0.81700
C732        C  0.90478537  0.47806227  0.98148077     0.81800
C733        C  0.96816173  0.39727646  0.51783703     0.81700
C734        C  0.98544422  0.06915344  0.97161101     0.81600
O735        O  0.72024294  0.23063175  0.79697069    -0.67500
O736        O  0.84734944  0.23506442  0.83117244    -0.67700
O737        O  0.78812459  0.16935553  0.80807943    -0.67600
O738        O  0.77978212  0.29792000  0.81784745    -0.67600
O739        O  0.76860723  0.29230784  0.90410974    -0.67600
O740        O  0.76721503  0.16110808  0.89141791    -0.67600
O741        O  0.83004411  0.22341777  0.91520633    -0.67500
O742        O  0.70440650  0.22880498  0.88232023    -0.67700
V743        V  0.78347164  0.23330668  0.81516332     1.35200
V744        V  0.76779116  0.22675610  0.89672603     1.35200
C745        C  0.69077272  0.22842556  0.83414615     0.81700
C746        C  0.86015010  0.22741447  0.87924657     0.81800
C747        C  0.77904088  0.14310375  0.84730006     0.81700
C748        C  0.77422004  0.31733950  0.86236084     0.81600
C749        C  0.69017650  0.46309434  0.52686866     0.01800
C750        C  0.71791295  0.04927764  0.64821908     0.01800
C751        C  0.79189192  0.44345911  0.91007922     0.01800
C752        C  0.80256278  0.02614079  0.77729955     0.01800
O753        O  0.96513073  0.00850466  0.81737134    -0.67500
O754        O  0.59225280  0.00754567  0.76853651    -0.67700
O755        O  0.53613990  0.07171512  0.80636861    -0.67600
O756        O  0.52343197  0.44913335  0.77315168    -0.67600
O757        O  0.51140268  0.46940943  0.68979008    -0.67600
O758        O  0.51165746  0.09198207  0.72686069    -0.67600
O759        O  0.57456770  0.03438992  0.68908816    -0.67500
O760        O  0.94603402  0.02281270  0.73423941    -0.67700
V761        V  0.52953606  0.00951771  0.78637531     1.35200
V762        V  0.51208941  0.02919249  0.70795885     1.35200
C763        C  0.93424526  0.01485755  0.78242754     0.81700
C764        C  0.60475779  0.02239670  0.72301178     0.81800
C765        C  0.52609870  0.10316445  0.77270754     0.81700
C766        C  0.51830757  0.43806125  0.72448547     0.81600
O767        O  0.74303375  0.21101474  0.68827200    -0.67500
O768        O  0.74094712  0.33759104  0.64849814    -0.67700
O769        O  0.68063247  0.27887146  0.68907293    -0.67600
O770        O  0.80462965  0.27064997  0.64787052    -0.67600
O771        O  0.78378512  0.26080007  0.56488947    -0.67600
O772        O  0.66038126  0.25264975  0.61117695    -0.67600
O773        O  0.71275484  0.31953385  0.57077764    -0.67500
O774        O  0.73028672  0.19340745  0.60498819    -0.67700
V775        V  0.74213708  0.27404900  0.66698438     1.35200
V776        V  0.72236521  0.25685868  0.58931671     1.35200
C777        C  0.73665751  0.18063646  0.65328357     0.81700
C778        C  0.72403308  0.35008914  0.60371793     0.81800
C779        C  0.64952247  0.26646950  0.65745644     0.81700
C780        C  0.81529780  0.26669543  0.59886642     0.81600
C781        C  0.55952599  0.21459850  0.84741684     0.01800
C782        C  0.96795329  0.20089182  0.96650726     0.01800
C783        C  0.53765089  0.30663945  0.72377317     0.01800
C784        C  0.94594766  0.28501103  0.59856775     0.01800
C785        C  0.00384401  0.29096228  0.68074315    -0.09000
C786        C  0.97725392  0.28352635  0.64482076    -0.10600
C787        C  0.96668065  0.22802836  0.51883083    -0.09000
C788        C  0.96130328  0.25223932  0.55737932    -0.10600
C789        C  0.50366081  0.21603773  0.93150101    -0.09000
C790        C  0.53128539  0.21964141  0.89577378    -0.10600
C791        C  0.54365563  0.24823599  0.80665569    -0.09000
C792        C  0.53680634  0.27484196  0.76997853    -0.10600
C793        C  0.60179465  0.26828935  0.67443531    -0.12200
C794        C  0.58533926  0.30502413  0.70048418    -0.27300
H795        H  0.57985979  0.23965617  0.66515557     0.16900
H796        H  0.60754043  0.33426018  0.70628115     0.17400
C797        C  0.86302748  0.27117990  0.58115406    -0.12200
C798        C  0.89798553  0.27314027  0.61635806    -0.27300
H799        H  0.86948867  0.27539317  0.53828247     0.16900
H800        H  0.89134167  0.26780212  0.65908161     0.17400
C801        C  0.53169811  0.15189010  0.78556768    -0.12200
C802        C  0.55411669  0.16519630  0.82999804    -0.27300
H803        H  0.51753779  0.17691227  0.75735180     0.16900
H804        H  0.56765133  0.13897303  0.85734948     0.17400
C805        C  0.52289440  0.39019218  0.70731799    -0.12200
C806        C  0.52650062  0.35476333  0.74239765    -0.27300
H807        H  0.52596100  0.38402385  0.66442745     0.16900
H808        H  0.52263856  0.36102904  0.78525211     0.17400
C809        C  0.88581155  0.01574018  0.79847841    -0.12200
C810        C  0.85168713  0.01567633  0.76210651    -0.27300
H811        H  0.87799228  0.01957208  0.84093870     0.16900
H812        H  0.85998358  0.01053965  0.71990490     0.17400
C813        C  0.78835958  0.49350489  0.81942497    -0.09000
C814        C  0.78541250  0.46827377  0.85832198    -0.10600
C815        C  0.73056186  0.09815789  0.63290426    -0.12200
C816        C  0.73348104  0.13181054  0.66936426    -0.27300
H817        H  0.73520949  0.10677657  0.59049583     0.16900
H818        H  0.73003022  0.12359379  0.71196685     0.17400
C819        C  0.77365956  0.02320264  0.72876760    -0.09000
C820        C  0.74998415  0.03091044  0.68962873    -0.10600
C821        C  0.66864784  0.04854619  0.66685457    -0.12200
C822        C  0.65355985  0.02559586  0.71061121    -0.27300
H823        H  0.64373993  0.06494716  0.64020890     0.16900
H824        H  0.67705760  0.00835316  0.73804710     0.17400
C825        C  0.73477683  0.47379456  0.98559328    -0.09000
C826        C  0.75993116  0.46316797  0.94937151    -0.10600
C827        C  0.71904220  0.02065639  0.59998560    -0.09000
C828        C  0.71134566  0.99636820  0.56211714    -0.10600
C829        C  0.69376950  0.41360440  0.54690398    -0.12200
C830        C  0.71765507  0.39921706  0.59062741    -0.27300
H831        H  0.67865830  0.38794328  0.52118200     0.16900
H832        H  0.73359389  0.42353984  0.61720300     0.17400
C833        C  0.90883559  0.22232563  0.89390543    -0.12200
C834        C  0.92043841  0.20375894  0.94226013    -0.27300
H835        H  0.93452103  0.23402606  0.86560374     0.16900
H836        H  0.89328229  0.19176630  0.96864021     0.17400
C837        C  0.79981474  0.07596321  0.79419404    -0.12200
C838        C  0.78246232  0.09277239  0.84043671    -0.27300
H839        H  0.81205550  0.10022402  0.76391765     0.16900
H840        H  0.77023595  0.07017081  0.87222615     0.17400
C841        C  0.78352778  0.39185369  0.90846015    -0.12200
C842        C  0.77546319  0.36810341  0.86346725    -0.27300
H843        H  0.78720945  0.37289826  0.94627078     0.16900
H844        H  0.77362859  0.38592886  0.82488599     0.17400
C845        C  0.64183958  0.22353334  0.82148554    -0.12200
C846        C  0.60931661  0.22357369  0.86001619    -0.27300
H847        H  0.63230237  0.21816071  0.77979810     0.16900
H848        H  0.61903536  0.22974756  0.90153918     0.17400
C849        C  0.96450607  0.34846935  0.53159529    -0.12200
C850        C  0.94622516  0.33428051  0.57849321    -0.27300
H851        H  0.97849756  0.32429769  0.50311549     0.16900
H852        H  0.93312863  0.35984078  0.60612829     0.17400
C853        C  0.85605498  0.47307999  0.96895603    -0.12200
C854        C  0.84153583  0.45003624  0.92567334    -0.27300
H855        H  0.83198474  0.48806459  0.99692323     0.16900
H856        H  0.86687288  0.43528980  0.89886132     0.17400
C857        C  0.64044191  0.47491728  0.51398772    -0.12200
C858        C  0.60772030  0.48127216  0.55189087    -0.27300
H859        H  0.63070724  0.47762640  0.47177829     0.16900
H860        H  0.61681997  0.48051217  0.59428500     0.17400
C861        C  0.98097390  0.11691042  0.95211067    -0.12200
C862        C  0.97736536  0.15226127  0.98601948    -0.27300
H863        H  0.97884072  0.12312528  0.90897302     0.16900
H864        H  0.98033062  0.14554630  0.02910056     0.17400
O865        O  0.53783492  0.99958194  0.06201823    -0.67500
O866        O  0.91536663  0.99564067  0.02459753    -0.67700
O867        O  0.97394094  0.93384972  0.06492732    -0.67600
O868        O  0.98235326  0.55742625  0.02420630    -0.67600
O869        O  0.98454155  0.53459243  0.43128054    -0.67600
O870        O  0.97961451  0.91306207  0.51209843    -0.67600
O871        O  0.92317360  0.96891069  0.45919343    -0.67500
O872        O  0.55207954  0.97262668  0.47625587    -0.67700
V873        V  0.97832193  0.99593265  0.04182135     1.35200
V874        V  0.98429058  0.97291756  0.47932099     1.35200
C875        C  0.56903074  0.99321461  0.02779290     0.81700
C876        C  0.89229810  0.98418530  0.48915478     0.81800
C877        C  0.98619858  0.90256605  0.03323284     0.81700
C878        C  0.97943258  0.56510568  0.46624026     0.81600
O879        O  0.72134948  0.74262174  0.31608527    -0.67500
O880        O  0.84608820  0.74352625  0.35513330    -0.67700
O881        O  0.78919752  0.68045507  0.31855170    -0.67600
O882        O  0.77901387  0.80639151  0.35437853    -0.67600
O883        O  0.76651813  0.78671575  0.43772737    -0.67600
O884        O  0.76506447  0.66162377  0.39848923    -0.67600
O885        O  0.82830677  0.71850571  0.43516854    -0.67500
O886        O  0.70246502  0.72922337  0.39936944    -0.67700
V887        V  0.78334145  0.74306194  0.33754769     1.35200
V888        V  0.76578703  0.72457377  0.41621359     1.35200
C889        C  0.69070434  0.73535190  0.35070717     0.81700
C890        C  0.85854464  0.72906864  0.40092151     0.81800
C891        C  0.77895174  0.64962920  0.35270791     0.81700
C892        C  0.77340720  0.81784122  0.40294617     0.81600
C893        C  0.70038288  0.97636554  0.03218881     0.01800
C894        C  0.71745445  0.56612152  0.15435721     0.01800
C895        C  0.78832009  0.94998167  0.40092157     0.01800
C896        C  0.80744265  0.53763706  0.27674144     0.01800
O897        O  0.97035948  0.50986281  0.30749011    -0.67500
O898        O  0.59524399  0.51022377  0.27284715    -0.67700
O899        O  0.53750446  0.57076595  0.31542382    -0.67600
O900        O  0.52734456  0.94747162  0.27163602    -0.67600
O901        O  0.51392262  0.96862724  0.18884321    -0.67600
O902        O  0.50858809  0.59236197  0.23841571    -0.67600
O903        O  0.57479114  0.54026664  0.19591164    -0.67500
O904        O  0.94928012  0.52317665  0.22483890    -0.67700
V905        V  0.53280845  0.50912468  0.29281579     1.35200
V906        V  0.51293695  0.53056936  0.21589326     1.35200
C907        C  0.93866505  0.51732351  0.27387696     0.81700
C908        C  0.60623566  0.52815846  0.22818831     0.81800
C909        C  0.52331849  0.60255075  0.28446710     0.81700
C910        C  0.52148900  0.93695191  0.22284588     0.81600
O911        O  0.74812554  0.72747093  0.19795155    -0.67500
O912        O  0.75803096  0.85345539  0.15301393    -0.67700
O913        O  0.69753869  0.80378930  0.20834862    -0.67600
O914        O  0.80993955  0.77815350  0.14542110    -0.67600
O915        O  0.77868294  0.77102497  0.06676710    -0.67600
O916        O  0.66286645  0.78037617  0.13646651    -0.67600
O917        O  0.71699054  0.83751445  0.08295930    -0.67500
O918        O  0.72281011  0.71168285  0.11820088    -0.67700
V919        V  0.75290511  0.79029485  0.17481679     1.35200
V920        V  0.72090075  0.77519872  0.10240880     1.35200
C921        C  0.73443829  0.69797013  0.16463147     0.81700
C922        C  0.73720367  0.86685261  0.11074028     0.81800
C923        C  0.66109922  0.79604433  0.18388469     0.81700
C924        C  0.81431948  0.77340326  0.09545064     0.81600
C925        C  0.56011297  0.71659598  0.34784636     0.01800
C926        C  0.97114686  0.69577440  0.47456203     0.01800
C927        C  0.53449411  0.80478900  0.22029188     0.01800
C928        C  0.94395513  0.78752344  0.09123105     0.01800
C929        C  0.99558473  0.78865942  0.17929281    -0.09000
C930        C  0.97231188  0.78433719  0.13980988    -0.10600
C931        C  0.96713961  0.73020830  0.01342343    -0.09000
C932        C  0.96017536  0.75552379  0.05035198    -0.10600
C933        C  0.50020429  0.71493327  0.42790672    -0.09000
C934        C  0.52803629  0.71938237  0.39276750    -0.10600
C935        C  0.54513351  0.74868969  0.30495051    -0.09000
C936        C  0.53610757  0.77333791  0.26702034    -0.10600
C937        C  0.61845109  0.80547399  0.21173099    -0.12200
C938        C  0.57802548  0.79906800  0.18878514    -0.27300
H939        H  0.62023367  0.81695962  0.25313622     0.16900
H940        H  0.57675904  0.78782320  0.14716332     0.17400
C941        C  0.86054335  0.77427467  0.07277136    -0.12200
C942        C  0.89613876  0.77525358  0.10716565    -0.27300
H943        H  0.86536802  0.77915770  0.02971221     0.16900
H944        H  0.88993291  0.76887099  0.14986281     0.17400
C945        C  0.52355823  0.65036628  0.30162864    -0.12200
C946        C  0.55963462  0.66782959  0.32751447    -0.27300
H947        H  0.49445022  0.67202397  0.29128197     0.16900
H948        H  0.58946078  0.64606292  0.33437929     0.17400
C949        C  0.52460236  0.88923612  0.20479060    -0.12200
C950        C  0.52854421  0.85361641  0.23939206    -0.27300
H951        H  0.52444161  0.88315694  0.16172703     0.16900
H952        H  0.52795630  0.86000082  0.28244898     0.17400
C953        C  0.89089030  0.52148373  0.29260715    -0.12200
C954        C  0.85534199  0.52491456  0.25835508    -0.27300
H955        H  0.88495218  0.52448513  0.33558918     0.16900
H956        H  0.86161376  0.52083343  0.21550824     0.17400
C957        C  0.79537811  0.00336229  0.31374694    -0.09000
C958        C  0.78856089  0.97904552  0.35239811    -0.10600
C959        C  0.72686576  0.61627438  0.14147831    -0.12200
C960        C  0.73041452  0.64883678  0.17949751    -0.27300
H961        H  0.73017325  0.62644914  0.09935109     0.16900
H962        H  0.72923803  0.63930714  0.22190233     0.17400
C963        C  0.77683690  0.53903451  0.23012569    -0.09000
C964        C  0.75079326  0.54856684  0.19408472    -0.10600
C965        C  0.66823222  0.56080663  0.17268466    -0.12200
C966        C  0.65476375  0.53499328  0.21514483    -0.27300
H967        H  0.64222096  0.57638120  0.14688958     0.16900
H968        H  0.67960442  0.51835535  0.24142460     0.17400
C969        C  0.72502529  0.96861470  0.47345138    -0.09000
C970        C  0.75145849  0.96437538  0.43690041    -0.10600
C971        C  0.72209808  0.53859332  0.10562266    -0.09000
C972        C  0.71867103  0.51157552  0.06958190    -0.10600
C973        C  0.70093447  0.93078077  0.06232445    -0.12200
C974        C  0.73632487  0.91508674  0.09243210    -0.27300
H975        H  0.67171596  0.90851163  0.05698982     0.16900
H976        H  0.76514743  0.93689332  0.10117084     0.17400
C977        C  0.90734916  0.72404243  0.41305313    -0.12200
C978        C  0.92177610  0.70110860  0.45722968    -0.27300
H979        H  0.93135148  0.73890052  0.38471297     0.16900
H980        H  0.89640589  0.68681492  0.48452430     0.17400
C981        C  0.80735821  0.58629351  0.29755630    -0.12200
C982        C  0.78296602  0.60069447  0.34005372    -0.27300
H983        H  0.82428117  0.61184515  0.27244168     0.16900
H984        H  0.76504147  0.57656643  0.36586016     0.17400
C985        C  0.78096320  0.90074473  0.38410874    -0.12200
C986        C  0.77675043  0.86598618  0.41982444    -0.27300
H987        H  0.77950689  0.89315796  0.34136048     0.16900
H988        H  0.77724096  0.87297575  0.46266890     0.17400
C989        C  0.64299553  0.73128637  0.33297089    -0.12200
C990        C  0.60765124  0.72848154  0.36727903    -0.27300
H991        H  0.63692862  0.72780848  0.29007048     0.16900
H992        H  0.61366256  0.73301397  0.41009757     0.17400
C993        C  0.98439330  0.85435523  0.04985638    -0.12200
C994        C  0.94596033  0.83643544  0.07035148    -0.27300
H995        H  0.01431051  0.83287807  0.04365149     0.16900
H996        H  0.91567937  0.85810668  0.07313635     0.17400
C997        C  0.84438049  0.97885622  0.47212275    -0.12200
C998        C  0.83477810  0.95479605  0.42706585    -0.27300
H999        H  0.81775544  0.99517160  0.49552134     0.16900
H1000       H  0.86282561  0.93995108  0.40437182     0.17400
C1001       C  0.65236972  0.98616083  0.01137124    -0.12200
C1002       C  0.61708163  0.99228915  0.04537980    -0.27300
H1003       H  0.64595554  0.98586903  0.96823450     0.16900
H1004       H  0.62352314  0.99320939  0.08844044     0.17400
C1005       C  0.97885252  0.61356866  0.45046394    -0.12200
C1006       C  0.98043082  0.64615849  0.48787774    -0.27300
H1007       H  0.97431121  0.62271237  0.40822736     0.16900
H1008       H  0.98638062  0.63615899  0.52972886     0.17400
O1009       O  0.53458502  0.98392778  0.56004963    -0.67500
O1010       O  0.90384693  0.00312327  0.53286538    -0.67700
O1011       O  0.95893263  0.94590858  0.58629374    -0.67600
O1012       O  0.97293111  0.55302322  0.51468857    -0.67600
O1013       O  0.99403059  0.53576917  0.94198081    -0.67600
O1014       O  0.99981441  0.91354970  0.98669065    -0.67600
O1015       O  0.93322222  0.96758360  0.94674528    -0.67500
O1016       O  0.55774072  0.98529843  0.97964984    -0.67700
V1017       V  0.96741947  0.00263177  0.55259622     1.35200
V1018       V  0.99573785  0.97582140  0.96426432     1.35200
C1019       C  0.56467065  0.97713424  0.52472318     0.81700
C1020       C  0.90290141  0.97940545  0.98018494     0.81800
C1021       C  0.96523235  0.90997316  0.56037404     0.81700
C1022       C  0.98661344  0.56766218  0.97476032     0.81600
O1023       O  0.71939839  0.73077462  0.79726938    -0.67500
O1024       O  0.84650113  0.73472234  0.83217793    -0.67700
O1025       O  0.78715897  0.66936862  0.80886238    -0.67600
O1026       O  0.77917440  0.79787003  0.81817391    -0.67600
O1027       O  0.76745581  0.79245289  0.90435376    -0.67600
O1028       O  0.76635227  0.66119544  0.89223957    -0.67600
O1029       O  0.82884799  0.72361324  0.91621074    -0.67500
O1030       O  0.70355963  0.72888119  0.88263801    -0.67700
V1031       V  0.78266225  0.73325708  0.81575865     1.35200
V1032       V  0.76676648  0.72688760  0.89729456     1.35200
C1033       C  0.68991895  0.72866213  0.83448741     0.81700
C1034       C  0.85906406  0.72712352  0.88037836     0.81800
C1035       C  0.77827817  0.64316256  0.84817063     0.81700
C1036       C  0.77328054  0.81738008  0.86255710     0.81600
C1037       C  0.69629359  0.96351408  0.52109723     0.01800
C1038       C  0.71584064  0.55039530  0.65037966     0.01800
C1039       C  0.78975843  0.94347820  0.91059633     0.01800
C1040       C  0.80263956  0.52688248  0.77744118     0.01800
O1041       O  0.96518189  0.50856439  0.81569050    -0.67500
O1042       O  0.59018184  0.51146291  0.77325150    -0.67700
O1043       O  0.53241401  0.57437346  0.81015678    -0.67600
O1044       O  0.52462594  0.94646511  0.76870663    -0.67600
O1045       O  0.51291160  0.96710488  0.68544244    -0.67600
O1046       O  0.50910648  0.59428790  0.73002096    -0.67600
O1047       O  0.57267708  0.53699605  0.69319704    -0.67500
O1048       O  0.94582689  0.52377941  0.73283205    -0.67700
V1049       V  0.52711642  0.51223467  0.79034766     1.35200
V1050       V  0.51010272  0.53145587  0.71160352     1.35200
C1051       C  0.93422313  0.51550199  0.78099336     0.81700
C1052       C  0.60284665  0.52588476  0.72753271     0.81800
C1053       C  0.52286244  0.60559216  0.77609448     0.81700
C1054       C  0.51965020  0.93548713  0.71989636     0.81600
O1055       O  0.74514785  0.71241046  0.68479280    -0.67500
O1056       O  0.74397860  0.83848432  0.64399208    -0.67700
O1057       O  0.68229405  0.78016824  0.68231354    -0.67600
O1058       O  0.80819341  0.77203145  0.64559081    -0.67600
O1059       O  0.78953863  0.75790315  0.56287593    -0.67600
O1060       O  0.66409003  0.75742119  0.60226959    -0.67600
O1061       O  0.72135547  0.82016313  0.56385280    -0.67500
O1062       O  0.73109341  0.69390243  0.60208306    -0.67700
V1063       V  0.74477904  0.77517168  0.66264878     1.35200
V1064       V  0.72712208  0.75750713  0.58431220     1.35200
C1065       C  0.73736394  0.68171371  0.65065310     0.81700
C1066       C  0.73018772  0.85076518  0.59776676     0.81800
C1067       C  0.65178197  0.77098126  0.64815874     0.81700
C1068       C  0.82024715  0.76579527  0.59725800     0.81600
C1069       C  0.55878100  0.71601977  0.85009689     0.01800
C1070       C  0.96657751  0.69924518  0.96765138     0.01800
C1071       C  0.53911052  0.80340858  0.72282704     0.01800
C1072       C  0.95272158  0.78201322  0.59763644     0.01800
C1073       C  0.00701532  0.79125673  0.68324118    -0.09000
C1074       C  0.98230811  0.78327083  0.64565806    -0.10600
C1075       C  0.97510762  0.72179058  0.52407388    -0.09000
C1076       C  0.96793457  0.74502696  0.56275135    -0.10600
C1077       C  0.50589660  0.71570222  0.93680083    -0.09000
C1078       C  0.53157741  0.72077627  0.89931564    -0.10600
C1079       C  0.54264192  0.74961675  0.80965039    -0.09000
C1080       C  0.53660873  0.77449068  0.77125357    -0.10600
C1081       C  0.60285662  0.77641834  0.66074733    -0.12200
C1082       C  0.58840516  0.80019445  0.70382376    -0.27300
H1083       H  0.57866674  0.76063061  0.63379833     0.16900
H1084       H  0.61389662  0.81523903  0.72992434     0.17400
C1085       C  0.86862740  0.76937651  0.58010621    -0.12200
C1086       C  0.90322095  0.77536197  0.61512550    -0.27300
H1087       H  0.87591511  0.76830164  0.53726826     0.16900
H1088       H  0.89549135  0.77561577  0.65795455     0.17400
C1089       C  0.52866374  0.65411692  0.78890882    -0.12200
C1090       C  0.55262958  0.66692499  0.83241365    -0.27300
H1091       H  0.51373040  0.67924743  0.76139299     0.16900
H1092       H  0.56690580  0.64046329  0.85892284     0.17400
C1093       C  0.52426280  0.88730476  0.70263417    -0.12200
C1094       C  0.52765829  0.85239082  0.73843189    -0.27300
H1095       H  0.52730769  0.88056750  0.65985254     0.16900
H1096       H  0.52329945  0.85988542  0.78095684     0.17400
C1097       C  0.88594330  0.51653006  0.79734979    -0.12200
C1098       C  0.85158505  0.51687006  0.76127593    -0.27300
H1099       H  0.87841749  0.51986846  0.83994154     0.16900
H1100       H  0.85947610  0.51221626  0.71889584     0.17400
C1101       C  0.78730305  0.99330690  0.81957365    -0.09000
C1102       C  0.78331994  0.96848189  0.85879067    -0.10600
C1103       C  0.72873034  0.59881868  0.63313940    -0.12200
C1104       C  0.73278981  0.63330659  0.66827866    -0.27300
H1105       H  0.73295823  0.60636342  0.59039298     0.16900
H1106       H  0.72982194  0.62613061  0.71118821     0.17400
C1107       C  0.77290427  0.52431904  0.72966736    -0.09000
C1108       C  0.74830531  0.53238446  0.69147135    -0.10600
C1109       C  0.66666092  0.55028390  0.66974574    -0.12200
C1110       C  0.65178826  0.52941720  0.71510582    -0.27300
H1111       H  0.64153692  0.56533070  0.64231595     0.16900
H1112       H  0.67553126  0.51374907  0.74351848     0.17400
C1113       C  0.73203805  0.97245318  0.98652336    -0.09000
C1114       C  0.75760958  0.96230532  0.95042703    -0.10600
C1115       C  0.71654255  0.52078475  0.60309654    -0.09000
C1116       C  0.70813601  0.49590430  0.56607319    -0.10600
C1117       C  0.70171349  0.91384065  0.53959096    -0.12200
C1118       C  0.72385255  0.89973509  0.58456811    -0.27300
H1119       H  0.68888043  0.88806053  0.51233872     0.16900
H1120       H  0.73737400  0.92417342  0.61280608     0.17400
C1121       C  0.90757430  0.72135525  0.89530716    -0.12200
C1122       C  0.91894195  0.70271141  0.94379381    -0.27300
H1123       H  0.93338967  0.73252818  0.86688860     0.16900
H1124       H  0.89168884  0.69139130  0.97041389     0.17400
C1125       C  0.79983097  0.57644884  0.79504513    -0.12200
C1126       C  0.78214962  0.59287130  0.84130836    -0.27300
H1127       H  0.81197514  0.60093993  0.76496927     0.16900
H1128       H  0.76988865  0.57004769  0.87286070     0.17400
C1129       C  0.78203141  0.89182516  0.90862742    -0.12200
C1130       C  0.77430895  0.86812940  0.86354255    -0.27300
H1131       H  0.78580382  0.87278690  0.94637138     0.16900
H1132       H  0.77246744  0.88597723  0.82497506     0.17400
C1133       C  0.64087014  0.72419901  0.82226757    -0.12200
C1134       C  0.60884533  0.72450698  0.86141672    -0.27300
H1135       H  0.63083922  0.71901149  0.78067160     0.16900
H1136       H  0.61921876  0.73055260  0.90277147     0.17400
C1137       C  0.95459137  0.86675252  0.58802615    -0.12200
C1138       C  0.95898084  0.82594616  0.56527566    -0.27300
H1139       H  0.94350075  0.86856284  0.62971967     0.16900
H1140       H  0.97011502  0.82459904  0.52348466     0.17400
C1141       C  0.85400476  0.97397240  0.96878653    -0.12200
C1142       C  0.83933143  0.95045304  0.92596496    -0.27300
H1143       H  0.83006567  0.98890591  0.99695999     0.16900
H1144       H  0.86459596  0.93582088  0.89896119     0.17400
C1145       C  0.64712289  0.97288432  0.50507960    -0.12200
C1146       C  0.61292390  0.97277430  0.54099048    -0.27300
H1147       H  0.63903508  0.97884539  0.46274632     0.16900
H1148       H  0.62054986  0.96825828  0.58359222     0.17400
C1149       C  0.98096496  0.61518455  0.95470535    -0.12200
C1150       C  0.97587759  0.65078634  0.98802416    -0.27300
H1151       H  0.97950047  0.62098480  0.91142561     0.16900
H1152       H  0.97833173  0.64454615  0.03125211     0.17400
loop_ 
_geom_bond_atom_site_label_1 
_geom_bond_atom_site_label_2 
_geom_bond_distance 
_geom_bond_site_symmetry_2 
_ccdc_geom_bond_type 
O1           C11   1.264       .  A
O1          V585   1.902   1_455  S
O2          C156   1.262   1_554  A
O2            V9   1.895       .  S
O3           C13   1.263       .  A
O3            V9   1.894       .  S
O4          C158   1.265   1_554  A
O4          V297   1.898   1_545  S
O5           C14   1.259       .  A
O5          V298   1.890   1_545  S
O6          C157   1.274       .  A
O6           V10   1.923       .  S
O7           C12   1.257       .  A
O7           V10   1.873       .  S
O8          C155   1.267       .  A
O8          V586   1.904   1_455  S
V9          O577   1.899       .  S
V9          O292   1.895       .  S
V9          V154   2.085   1_554  T
V10         O293   1.931       .  S
V10         O584   1.890       .  S
V10         V153   2.082       .  T
C11         O152   1.267   1_554  A
C11         C138   1.480       .  S
C12         O146   1.272       .  A
C12         C133   1.474       .  S
C13         O150   1.262   1_554  A
C13         C129   1.461       .  S
C14         O148   1.266       .  A
C14         C141   1.465       .  S
O15          C25   1.263       .  A
O15          V23   1.900       .  S
O16          C26   1.262       .  A
O16          V23   1.894       .  S
O17          C27   1.266       .  A
O17          V23   1.903       .  S
O18          C28   1.268       .  A
O18          V23   1.912       .  S
O19          C28   1.264       .  A
O19          V24   1.901       .  S
O20          C27   1.262       .  A
O20          V24   1.898       .  S
O21          C26   1.266       .  A
O21          V24   1.901       .  S
O22          C25   1.266       .  A
O22          V24   1.906       .  S
V23          V24   2.085       .  T
C25         C125   1.477       .  S
C26         C113   1.471       .  S
C27         C118   1.474       .  S
C28         C122   1.482       .  S
C29         C109   1.521       .  S
C29         C137   1.524       .  S
C29         C249   1.474   1_554  S
C29         C396   1.476       .  S
C30          C95   1.524       .  S
C30         C101   1.518       .  S
C30         C100   1.473       .  S
C30         C107   1.471       .  S
C31         C121   1.528       .  S
C31         C134   1.519       .  S
C31          C94   1.467       .  S
C31         C106   1.467       .  S
C32          C90   1.522       .  S
C32         C117   1.522       .  S
C32          C99   1.465       .  S
C32         C381   1.489   1_545  S
O33          C43   1.263       .  A
O33         V617   1.902       .  S
O34          C44   1.262       .  A
O34          V41   1.896       .  S
O35          C45   1.265       .  A
O35          V41   1.901       .  S
O36          C46   1.266       .  A
O36         V329   1.902       .  S
O37          C46   1.263       .  A
O37         V330   1.900       .  S
O38          C45   1.263       .  A
O38          V42   1.895       .  S
O39          C44   1.264       .  A
O39          V42   1.895       .  S
O40          C43   1.267       .  A
O40         V618   1.907       .  S
V41         O609   1.897   1_455  S
V41         O324   1.905   1_545  S
V41          V42   2.086       .  T
V42         O325   1.901   1_545  S
V42         O616   1.903   1_455  S
C43          C89   1.480       .  S
C44         C102   1.468       .  S
C45          C81   1.471       .  S
C46          C85   1.476       .  S
O47          C57   1.270       .  A
O47          V55   1.922       .  S
O48          C58   1.270       .  A
O48          V55   1.922       .  S
O49          C59   1.253       .  A
O49          V55   1.870       .  S
O50          C60   1.259       .  A
O50          V55   1.868       .  S
O51          C60   1.267       .  A
O51          V56   1.915       .  S
O52          C59   1.270       .  A
O52          V56   1.909       .  S
O53          C58   1.259       .  A
O53          V56   1.878       .  S
O54          C57   1.261       .  A
O54          V56   1.891       .  S
V55          V56   2.085       .  T
C57          C96   1.484       .  S
C58         C110   1.480       .  S
C59          C73   1.459       .  S
C60          C77   1.472       .  S
C61          C82   1.523       .  S
C61         C126   1.520       .  S
C61          C70   1.463       .  S
C61          C71   1.477       .  S
C62         C114   1.521       .  S
C62         C142   1.507       .  S
C62         C211   1.453       .  S
C62         C645   1.477       .  S
C63          C74   1.510       .  S
C63          C86   1.520       .  S
C63          C72   1.473       .  S
C63         C641   1.463   1_455  S
C64          C78   1.507       .  S
C64         C130   1.512       .  S
C64          C66   1.470       .  S
C64          C68   1.473       .  S
C65         C639   1.467       .  S
C65          C66   1.205       .  T
C67         C206   1.469   1_554  S
C67          C68   1.206       .  T
C69         C638   1.468       .  S
C69          C70   1.203   1_655  T
C71          C72   1.207       .  T
C73          C74   1.332       .  D
C73          H75   1.088       .  S
C74          H76   1.090       .  S
C77          C78   1.348       .  D
C77          H79   1.087       .  S
C78          H80   1.090       .  S
C81          C82   1.348       .  D
C81          H83   1.084       .  S
C82          H84   1.088       .  S
C85          C86   1.345       .  D
C85          H87   1.086       .  S
C86          H88   1.088       .  S
C89          C90   1.346       .  D
C89          H91   1.087       .  S
C90          H92   1.089       .  S
C93         C320   1.471       .  S
C93          C94   1.205       .  T
C95          C96   1.355       .  D
C95          H97   1.088       .  S
C96          H98   1.086       .  S
C99         C100   1.205       .  T
C101        C102   1.349       .  D
C101        H103   1.089       .  S
C102        H104   1.085       .  S
C105        C173   1.464       .  S
C105        C106   1.202       .  T
C107        C108   1.208       .  T
C108        C317   1.477   1_545  S
C109        C110   1.356       .  D
C109        H111   1.088       .  S
C110        H112   1.085       .  S
C113        C114   1.347       .  D
C113        H115   1.085       .  S
C114        H116   1.088       .  S
C117        C118   1.347       .  D
C117        H119   1.089       .  S
C118        H120   1.085       .  S
C121        C122   1.348       .  D
C121        H123   1.089       .  S
C122        H124   1.087       .  S
C125        C126   1.345       .  D
C125        H127   1.086       .  S
C126        H128   1.088       .  S
C129        C130   1.345       .  D
C129        H131   1.086       .  S
C130        H132   1.089       .  S
C133        C134   1.357       .  D
C133        H135   1.086       .  S
C134        H136   1.088       .  S
C137        C138   1.348       .  D
C137        H139   1.088   1_554  S
C138        H140   1.086       .  S
C141        C142   1.339       .  D
C141        H143   1.087       .  S
C142        H144   1.089       .  S
O145        C155   1.262       .  A
O145        V729   1.894   1_455  S
O146        V153   1.927       .  S
O147        C157   1.252       .  A
O147        V153   1.864       .  S
O148        V441   1.895   1_545  S
O149        C158   1.265       .  A
O149        V442   1.905   1_545  S
O150        V154   1.897       .  S
O151        C156   1.266       .  A
O151        V154   1.902       .  S
O152        V730   1.908   1_455  S
V153        O721   1.928       .  S
V153        O436   1.864       .  S
V154        O437   1.896       .  S
V154        O728   1.902       .  S
C155        C282   1.471       .  S
C156        C277   1.472       .  S
C157        C273   1.464       .  S
C158        C285   1.477       .  S
O159        C169   1.268       .  A
O159        V167   1.914       .  S
O160        C170   1.269       .  A
O160        V167   1.920       .  S
O161        C171   1.258       .  A
O161        V167   1.871       .  S
O162        C172   1.257       .  A
O162        V167   1.883       .  S
O163        C172   1.272       .  A
O163        V168   1.924       .  S
O164        C171   1.270       .  A
O164        V168   1.922       .  S
O165        C170   1.260       .  A
O165        V168   1.881       .  S
O166        C169   1.260       .  A
O166        V168   1.890       .  S
V167        V168   2.085       .  T
C169        C269   1.478       .  S
C170        C257   1.480       .  S
C171        C262   1.478       .  S
C172        C266   1.478       .  S
C173        C253   1.510       .  S
C173        C281   1.516       .  S
C173        C540   1.477       .  S
C174        C239   1.515       .  S
C174        C245   1.521       .  S
C174        C244   1.474       .  S
C174        C251   1.461       .  S
C175        C265   1.525       .  S
C175        C278   1.520       .  S
C175        C238   1.488       .  S
C175        C250   1.479       .  S
C176        C234   1.521       .  S
C176        C261   1.515       .  S
C176        C525   1.469       .  S
C176        C243   1.466       .  S
O177        C187   1.263       .  A
O177        V761   1.898       .  S
O178        C188   1.264       .  A
O178        V185   1.901       .  S
O179        C189   1.263       .  A
O179        V185   1.895       .  S
O180        C190   1.266       .  A
O180        V473   1.901       .  S
O181        C190   1.264       .  A
O181        V474   1.902       .  S
O182        C189   1.263       .  A
O182        V186   1.900       .  S
O183        C188   1.266       .  A
O183        V186   1.900       .  S
O184        C187   1.267       .  A
O184        V762   1.907       .  S
V185        O753   1.904   1_455  S
V185        O468   1.900   1_545  S
V185        V186   2.084       .  T
V186        O469   1.902   1_545  S
V186        O760   1.900   1_455  S
C187        C233   1.476       .  S
C188        C246   1.475       .  S
C189        C225   1.464       .  S
C190        C229   1.476       .  S
O191        C201   1.263       .  A
O191        V199   1.901       .  S
O192        C202   1.261       .  A
O192        V199   1.896       .  S
O193        C203   1.266       .  A
O193        V199   1.900       .  S
O194        C204   1.266       .  A
O194        V199   1.903       .  S
O195        C204   1.264       .  A
O195        V200   1.901       .  S
O196        C203   1.263       .  A
O196        V200   1.898       .  S
O197        C202   1.263       .  A
O197        V200   1.889       .  S
O198        C201   1.265       .  A
O198        V200   1.897       .  S
V199        V200   2.085       .  T
C201        C240   1.473       .  S
C202        C254   1.457       .  S
C203        C217   1.474       .  S
C204        C221   1.477       .  S
C205        C226   1.515       .  S
C205        C270   1.522       .  S
C205        C214   1.472       .  S
C205        C215   1.467       .  S
C206        C258   1.521       .  S
C206        C286   1.519       .  S
C206        C789   1.474       .  S
C207        C218   1.519       .  S
C207        C230   1.516       .  S
C207        C785   1.477       .  S
C207        C216   1.460       .  S
C208        C222   1.523       .  S
C208        C274   1.516       .  S
C208        C210   1.470       .  S
C208        C212   1.455       .  S
C209        C783   1.472       .  S
C209        C210   1.205       .  T
C211        C212   1.197       .  T
C213        C782   1.476   1_455  S
C213        C214   1.208       .  T
C215        C216   1.202       .  T
C217        C218   1.346       .  D
C217        H219   1.085       .  S
C218        H220   1.089       .  S
C221        C222   1.348       .  D
C221        H223   1.086       .  S
C222        H224   1.088       .  S
C225        C226   1.346       .  D
C225        H227   1.086   1_455  S
C226        H228   1.089       .  S
C229        C230   1.345       .  D
C229        H231   1.087       .  S
C230        H232   1.089       .  S
C233        C234   1.346       .  D
C233        H235   1.087       .  S
C234        H236   1.089       .  S
C237        C464   1.492       .  S
C237        C238   1.216       .  T
C239        C240   1.345       .  D
C239        H241   1.089       .  S
C240        H242   1.087       .  S
C243        C244   1.205       .  T
C245        C246   1.348       .  D
C245        H247   1.088       .  S
C246        H248   1.085       .  S
C249        C250   1.210       .  T
C251        C252   1.202       .  T
C252        C461   1.467   1_545  S
C253        C254   1.343       .  D
C253        H255   1.089       .  S
C254        H256   1.086       .  S
C257        C258   1.356       .  D
C257        H259   1.085       .  S
C258        H260   1.089       .  S
C261        C262   1.355       .  D
C261        H263   1.089       .  S
C262        H264   1.085       .  S
C265        C266   1.341       .  D
C265        H267   1.089       .  S
C266        H268   1.085       .  S
C269        C270   1.355       .  D
C269        H271   1.087       .  S
C270        H272   1.088       .  S
C273        C274   1.331       .  D
C273        H275   1.088       .  S
C274        H276   1.089       .  S
C277        C278   1.346       .  D
C277        H279   1.085       .  S
C278        H280   1.089       .  S
C281        C282   1.344       .  D
C281        H283   1.088       .  S
C282        H284   1.087       .  S
C285        C286   1.347       .  D
C285        H287   1.087       .  S
C286        H288   1.089   1_556  S
O289        C299   1.264       .  A
O289        V873   1.900   1_455  S
O290        C444   1.262   1_554  A
O290        V297   1.896       .  S
O291        C301   1.263       .  A
O291        V297   1.893       .  S
O292        C446   1.265   1_554  A
O293        C302   1.272       .  A
O294        C445   1.259       .  A
O294        V298   1.886       .  S
O295        C300   1.268       .  A
O295        V298   1.901       .  S
O296        C443   1.258       .  A
O296        V874   1.884   1_455  S
V297        O865   1.899       .  S
V297        V442   2.086   1_554  T
V298        O872   1.907       .  S
V298        V441   2.086       .  T
C299        O440   1.266   1_554  A
C299        C426   1.477       .  S
C300        O434   1.260       .  A
C300        C421   1.473       .  S
C301        O438   1.263   1_554  A
C301        C417   1.464       .  S
C302        O436   1.257       .  A
C302        C429   1.482       .  S
O303        C313   1.265       .  A
O303        V311   1.911       .  S
O304        C314   1.269       .  A
O304        V311   1.917       .  S
O305        C315   1.258       .  A
O305        V311   1.868       .  S
O306        C316   1.257       .  A
O306        V311   1.883       .  S
O307        C316   1.272       .  A
O307        V312   1.919       .  S
O308        C315   1.268       .  A
O308        V312   1.919       .  S
O309        C314   1.262       .  A
O309        V312   1.889       .  S
O310        C313   1.262       .  A
O310        V312   1.896       .  S
V311        V312   2.084       .  T
C313        C413   1.479       .  S
C314        C401   1.482       .  S
C315        C406   1.473       .  S
C316        C410   1.475       .  S
C317        C397   1.519       .  S
C317        C425   1.521       .  S
C317        C537   1.470   1_554  S
C318        C383   1.523       .  S
C318        C389   1.518       .  S
C318        C388   1.477       .  S
C318        C395   1.473       .  S
C319        C409   1.519       .  S
C319        C422   1.514       .  S
C319        C382   1.485       .  S
C319        C394   1.483       .  S
C320        C378   1.519       .  S
C320        C405   1.511       .  S
C320        C387   1.471       .  S
O321        C331   1.264       .  A
O321        V905   1.901       .  S
O322        C332   1.263       .  A
O322        V329   1.901       .  S
O323        C333   1.266       .  A
O323        V329   1.903       .  S
O324        C334   1.266       .  A
O325        C334   1.264       .  A
O326        C333   1.262       .  A
O326        V330   1.894       .  S
O327        C332   1.265       .  A
O327        V330   1.902       .  S
O328        C331   1.266       .  A
O328        V906   1.902       .  S
V329        O897   1.904   1_455  S
V329        V330   2.084       .  T
V330        O904   1.908   1_455  S
C331        C377   1.475       .  S
C332        C390   1.468       .  S
C333        C369   1.471       .  S
C334        C373   1.478       .  S
O335        C345   1.268       .  A
O335        V343   1.916       .  S
O336        C346   1.269       .  A
O336        V343   1.918       .  S
O337        C347   1.253       .  A
O337        V343   1.869       .  S
O338        C348   1.258       .  A
O338        V343   1.862       .  S
O339        C348   1.268       .  A
O339        V344   1.919       .  S
O340        C347   1.271       .  A
O340        V344   1.912       .  S
O341        C346   1.260       .  A
O341        V344   1.880       .  S
O342        C345   1.261       .  A
O342        V344   1.892       .  S
V343        V344   2.086       .  T
C345        C384   1.480       .  S
C346        C398   1.478       .  S
C347        C361   1.460       .  S
C348        C365   1.472       .  S
C349        C370   1.524       .  S
C349        C414   1.520       .  S
C349        C358   1.475       .  S
C349        C359   1.482       .  S
C350        C402   1.524       .  S
C350        C430   1.515       .  S
C350        C499   1.476       .  S
C350        C933   1.466       .  S
C351        C362   1.512       .  S
C351        C374   1.522       .  S
C351        C929   1.464   1_455  S
C351        C360   1.478       .  S
C352        C366   1.506       .  S
C352        C418   1.514       .  S
C352        C354   1.462       .  S
C352        C356   1.463       .  S
C353        C927   1.459       .  S
C353        C354   1.200       .  T
C355        C494   1.457   1_554  S
C355        C356   1.200       .  T
C357        C926   1.482   1_455  S
C357        C358   1.210       .  T
C359        C360   1.210       .  T
C361        C362   1.331       .  D
C361        H363   1.087       .  S
C362        H364   1.090       .  S
C365        C366   1.350       .  D
C365        H367   1.086       .  S
C366        H368   1.090       .  S
C369        C370   1.348       .  D
C369        H371   1.084       .  S
C370        H372   1.088       .  S
C373        C374   1.347       .  D
C373        H375   1.086       .  S
C374        H376   1.088       .  S
C377        C378   1.347       .  D
C377        H379   1.087       .  S
C378        H380   1.089       .  S
C381        C382   1.215       .  T
C383        C384   1.352       .  D
C383        H385   1.088       .  S
C384        H386   1.086       .  S
C387        C388   1.208       .  T
C389        C390   1.347       .  D
C389        H391   1.089       .  S
C390        H392   1.086       .  S
C393        C461   1.482       .  S
C393        C394   1.213       .  T
C395        C396   1.208       .  T
C397        C398   1.354       .  D
C397        H399   1.088       .  S
C398        H400   1.085       .  S
C401        C402   1.356       .  D
C401        H403   1.085       .  S
C402        H404   1.088       .  S
C405        C406   1.353       .  D
C405        H407   1.089       .  S
C406        H408   1.085       .  S
C409        C410   1.339       .  D
C409        H411   1.089       .  S
C410        H412   1.086       .  S
C413        C414   1.350       .  D
C413        H415   1.086       .  S
C414        H416   1.088       .  S
C417        C418   1.346       .  D
C417        H419   1.086       .  S
C418        H420   1.089       .  S
C421        C422   1.341       .  D
C421        H423   1.085       .  S
C422        H424   1.090       .  S
C425        C426   1.347       .  D
C425        H427   1.088   1_554  S
C426        H428   1.086       .  S
C429        C430   1.356       .  D
C429        H431   1.086       .  S
C430        H432   1.089       .  S
O433        C443   1.273   1_545  A
O433       V1017   1.926   1_455  S
O434        V441   1.894       .  S
O435        C445   1.265       .  A
O435        V441   1.894       .  S
O437        C446   1.263       .  A
O438        V442   1.902       .  S
O439        C444   1.266       .  A
O439        V442   1.902       .  S
O440       V1018   1.904   1_455  S
V441       O1009   1.896       .  S
V442       O1016   1.904       .  S
C443        C570   1.481       .  S
C444        C565   1.472       .  S
C445        C561   1.460       .  S
C446        C573   1.468       .  S
O447        C457   1.262       .  A
O447        V455   1.895       .  S
O448        C458   1.261       .  A
O448        V455   1.895       .  S
O449        C459   1.267       .  A
O449        V455   1.903       .  S
O450        C460   1.267       .  A
O450        V455   1.907       .  S
O451        C460   1.263       .  A
O451        V456   1.899       .  S
O452        C459   1.262       .  A
O452        V456   1.896       .  S
O453        C458   1.266       .  A
O453        V456   1.898       .  S
O454        C457   1.266       .  A
O454        V456   1.905       .  S
V455        V456   2.086       .  T
C457        C557   1.472       .  S
C458        C545   1.470       .  S
C459        C550   1.474       .  S
C460        C554   1.477       .  S
C461        C541   1.517       .  S
C461        C569   1.527       .  S
C462        C527   1.521       .  S
C462        C533   1.519       .  S
C462        C532   1.485       .  S
C462        C539   1.471       .  S
C463        C553   1.519       .  S
C463        C566   1.522       .  S
C463        C526   1.463       .  S
C463        C538   1.478       .  S
C464        C522   1.521       .  S
C464        C549   1.523       .  S
C464        C531   1.477       .  S
O465        C475   1.264       .  A
O465       V1049   1.901       .  S
O466        C476   1.263       .  A
O466        V473   1.898       .  S
O467        C477   1.264       .  A
O467        V473   1.897       .  S
O468        C478   1.266       .  A
O469        C478   1.264       .  A
O470        C477   1.263       .  A
O470        V474   1.901       .  S
O471        C476   1.265       .  A
O471        V474   1.897       .  S
O472        C475   1.266       .  A
O472       V1050   1.906       .  S
V473       O1041   1.903   1_455  S
V473        V474   2.084       .  T
V474       O1048   1.899   1_455  S
C475        C521   1.476       .  S
C476        C534   1.471       .  S
C477        C513   1.466       .  S
C478        C517   1.476       .  S
O479        C489   1.265       .  A
O479        V487   1.907       .  S
O480        C490   1.264       .  A
O480        V487   1.905       .  S
O481        C491   1.264       .  A
O481        V487   1.894       .  S
O482        C492   1.264       .  A
O482        V487   1.896       .  S
O483        C492   1.264       .  A
O483        V488   1.900       .  S
O484        C491   1.263       .  A
O484        V488   1.897       .  S
O485        C490   1.263       .  A
O485        V488   1.895       .  S
O486        C489   1.266       .  A
O486        V488   1.902       .  S
V487        V488   2.084       .  T
C489        C528   1.480       .  S
C490        C542   1.468       .  S
C491        C505   1.469       .  S
C492        C509   1.470       .  S
C493        C514   1.517       .  S
C493        C558   1.519       .  S
C493        C502   1.462       .  S
C493        C503   1.472       .  S
C494        C546   1.516       .  S
C494        C574   1.511       .  S
C494       C1077   1.476       .  S
C495        C506   1.517       .  S
C495        C518   1.517       .  S
C495       C1073   1.478       .  S
C495        C504   1.465       .  S
C496        C510   1.516       .  S
C496        C562   1.514       .  S
C496        C498   1.471       .  S
C496        C500   1.482       .  S
C497       C1071   1.480       .  S
C497        C498   1.209       .  T
C499        C500   1.210       .  T
C501       C1070   1.467   1_455  S
C501        C502   1.202       .  T
C503        C504   1.204       .  T
C505        C506   1.347       .  D
C505        H507   1.084       .  S
C506        H508   1.088       .  S
C509        C510   1.347       .  D
C509        H511   1.087       .  S
C510        H512   1.088       .  S
C513        C514   1.347       .  D
C513        H515   1.086   1_455  S
C514        H516   1.089       .  S
C517        C518   1.346       .  D
C517        H519   1.086       .  S
C518        H520   1.088       .  S
C521        C522   1.348       .  D
C521        H523   1.087       .  S
C522        H524   1.088       .  S
C525        C526   1.203   1_545  T
C527        C528   1.348       .  D
C527        H529   1.089       .  S
C528        H530   1.087       .  S
C531        C532   1.212       .  T
C533        C534   1.347       .  D
C533        H535   1.089       .  S
C534        H536   1.085       .  S
C537        C538   1.208       .  T
C539        C540   1.208       .  T
C541        C542   1.347       .  D
C541        H543   1.089       .  S
C542        H544   1.086       .  S
C545        C546   1.344       .  D
C545        H547   1.085       .  S
C546        H548   1.089       .  S
C549        C550   1.346       .  D
C549        H551   1.089       .  S
C550        H552   1.085       .  S
C553        C554   1.345       .  D
C553        H555   1.089       .  S
C554        H556   1.087       .  S
C557        C558   1.345       .  D
C557        H559   1.087       .  S
C558        H560   1.088       .  S
C561        C562   1.343       .  D
C561        H563   1.084       .  S
C562        H564   1.089       .  S
C565        C566   1.348       .  D
C565        H567   1.085       .  S
C566        H568   1.088       .  S
C569        C570   1.360       .  D
C569        H571   1.088       .  S
C570        H572   1.086       .  S
C573        C574   1.344       .  D
C573        H575   1.087       .  S
C574        H576   1.088   1_556  S
O577        C587   1.263       .  A
O578        C732   1.262   1_554  A
O578        V585   1.894       .  S
O579        C589   1.264       .  A
O579        V585   1.898       .  S
O580        C734   1.266   1_554  A
O580        V873   1.901   1_545  S
O581        C590   1.271       .  A
O581        V874   1.926   1_545  S
O582        C733   1.261       .  A
O582        V586   1.891       .  S
O583        C588   1.265       .  A
O583        V586   1.898       .  S
O584        C731   1.260       .  A
V585        O868   1.902       .  S
V585        V730   2.084   1_554  T
V586        O869   1.894       .  S
V586        V729   2.084       .  T
C587        O728   1.266   1_554  A
C587        C714   1.473       .  S
C588        O722   1.261       .  A
C588        C709   1.463       .  S
C589        O726   1.262   1_654  A
C589        C705   1.462       .  S
C590        O724   1.256       .  A
C590        C717   1.476       .  S
O591        C601   1.264       .  A
O591        V599   1.903       .  S
O592        C602   1.264       .  A
O592        V599   1.902       .  S
O593        C603   1.262       .  A
O593        V599   1.890       .  S
O594        C604   1.264       .  A
O594        V599   1.896       .  S
O595        C604   1.265       .  A
O595        V600   1.902       .  S
O596        C603   1.263       .  A
O596        V600   1.900       .  S
O597        C602   1.265       .  A
O597        V600   1.898       .  S
O598        C601   1.264       .  A
O598        V600   1.898       .  S
V599        V600   2.084       .  T
C601        C701   1.474       .  S
C602        C689   1.475       .  S
C603        C694   1.460       .  S
C604        C698   1.472       .  S
C605        C685   1.514       .  S
C605        C713   1.518       .  S
C605        C825   1.467   1_554  S
C605        C972   1.473       .  S
C606        C671   1.517       .  S
C606        C677   1.520       .  S
C606        C676   1.474       .  S
C606        C683   1.466       .  S
C607        C697   1.518       .  S
C607        C710   1.514       .  S
C607        C670   1.477       .  S
C607        C682   1.484       .  S
C608        C666   1.520       .  S
C608        C693   1.513       .  S
C608        C957   1.471       .  S
C608        C675   1.468       .  S
O609        C619   1.263       .  A
O610        C620   1.262       .  A
O610        V617   1.898       .  S
O611        C621   1.265       .  A
O611        V617   1.898       .  S
O612        C622   1.266       .  A
O612        V905   1.903       .  S
O613        C622   1.264       .  A
O613        V906   1.904       .  S
O614        C621   1.261       .  A
O614        V618   1.891       .  S
O615        C620   1.267       .  A
O615        V618   1.903       .  S
O616        C619   1.265       .  A
V617        O900   1.903   1_545  S
V617        V618   2.086       .  T
V618        O901   1.894   1_545  S
C619        C665   1.473       .  S
C620        C678   1.474       .  S
C621        C657   1.466       .  S
C622        C661   1.479       .  S
O623        C633   1.269       .  A
O623        V631   1.917       .  S
O624        C634   1.269       .  A
O624        V631   1.919       .  S
O625        C635   1.254       .  A
O625        V631   1.874       .  S
O626        C636   1.260       .  A
O626        V631   1.870       .  S
O627        C636   1.267       .  A
O627        V632   1.915       .  S
O628        C635   1.270       .  A
O628        V632   1.907       .  S
O629        C634   1.259       .  A
O629        V632   1.873       .  S
O630        C633   1.260       .  A
O630        V632   1.885       .  S
V631        V632   2.085       .  T
C633        C672   1.477       .  S
C634        C686   1.477       .  S
C635        C649   1.462       .  S
C636        C653   1.474       .  S
C637        C658   1.517       .  S
C637        C702   1.518       .  S
C637        C646   1.468       .  S
C637        C647   1.483       .  S
C638        C690   1.519       .  S
C638        C718   1.511       .  S
C638        C787   1.472       .  S
C639        C650   1.510       .  S
C639        C662   1.522       .  S
C639        C648   1.479       .  S
C640        C654   1.508       .  S
C640        C706   1.514       .  S
C640        C642   1.465       .  S
C640        C644   1.470       .  S
C641        C642   1.202       .  T
C643        C782   1.466   1_554  S
C643        C644   1.205       .  T
C645        C646   1.207       .  T
C647        C648   1.211       .  T
C649        C650   1.332       .  D
C649        H651   1.087       .  S
C650        H652   1.090       .  S
C653        C654   1.348       .  D
C653        H655   1.087       .  S
C654        H656   1.090       .  S
C657        C658   1.345       .  D
C657        H659   1.084       .  S
C658        H660   1.089       .  S
C661        C662   1.347       .  D
C661        H663   1.086       .  S
C662        H664   1.088       .  S
C665        C666   1.348       .  D
C665        H667   1.087       .  S
C666        H668   1.088       .  S
C669        C896   1.483       .  S
C669        C670   1.211       .  T
C671        C672   1.352       .  D
C671        H673   1.089       .  S
C672        H674   1.086       .  S
C675        C676   1.205       .  T
C677        C678   1.347       .  D
C677        H679   1.088       .  S
C678        H680   1.085       .  S
C681        C749   1.480       .  S
C681        C682   1.213       .  T
C683        C684   1.205       .  T
C684        C893   1.471   1_545  S
C685        C686   1.353       .  D
C685        H687   1.089       .  S
C686        H688   1.085       .  S
C689        C690   1.348       .  D
C689        H691   1.085       .  S
C690        H692   1.088       .  S
C693        C694   1.346       .  D
C693        H695   1.088       .  S
C694        H696   1.086       .  S
C697        C698   1.349       .  D
C697        H699   1.088       .  S
C698        H700   1.087       .  S
C701        C702   1.346       .  D
C701        H703   1.086       .  S
C702        H704   1.088       .  S
C705        C706   1.346       .  D
C705        H707   1.086   1_655  S
C706        H708   1.088       .  S
C709        C710   1.341       .  D
C709        H711   1.086       .  S
C710        H712   1.089       .  S
C713        C714   1.347       .  D
C713        H715   1.088   1_554  S
C714        H716   1.087       .  S
C717        C718   1.355       .  D
C717        H719   1.086       .  S
C718        H720   1.089       .  S
O721        C731   1.273       .  A
O722        V729   1.896       .  S
O723        C733   1.265       .  A
O723        V729   1.894       .  S
O724       V1017   1.863       .  S
O725        C734   1.263       .  A
O725       V1018   1.899   1_545  S
O726        V730   1.896   1_455  S
O727        C732   1.267       .  A
O727        V730   1.904       .  S
V729       O1012   1.888       .  S
V730       O1013   1.899       .  S
C731        C858   1.488       .  S
C732        C853   1.471       .  S
C733        C849   1.465       .  S
C734        C861   1.474       .  S
O735        C745   1.267       .  A
O735        V743   1.911       .  S
O736        C746   1.268       .  A
O736        V743   1.916       .  S
O737        C747   1.261       .  A
O737        V743   1.881       .  S
O738        C748   1.260       .  A
O738        V743   1.890       .  S
O739        C748   1.272       .  A
O739        V744   1.925       .  S
O740        C747   1.269       .  A
O740        V744   1.922       .  S
O741        C746   1.262       .  A
O741        V744   1.884       .  S
O742        C745   1.262       .  A
O742        V744   1.893       .  S
V743        V744   2.085       .  T
C745        C845   1.477       .  S
C746        C833   1.479       .  S
C747        C838   1.484       .  S
C748        C842   1.483       .  S
C749        C829   1.524       .  S
C749        C857   1.529       .  S
C749       C1116   1.475       .  S
C750        C815   1.520       .  S
C750        C821   1.518       .  S
C750        C820   1.485       .  S
C750        C827   1.470       .  S
C751        C841   1.529       .  S
C751        C854   1.521       .  S
C751        C814   1.478       .  S
C751        C826   1.473       .  S
C752        C810   1.519       .  S
C752        C837   1.520       .  S
C752       C1101   1.484   1_545  S
C752        C819   1.477       .  S
O753        C763   1.265       .  A
O754        C764   1.261       .  A
O754        V761   1.893       .  S
O755        C765   1.265       .  A
O755        V761   1.900       .  S
O756        C766   1.265       .  A
O756       V1049   1.900       .  S
O757        C766   1.263       .  A
O757       V1050   1.897       .  S
O758        C765   1.263       .  A
O758        V762   1.898       .  S
O759        C764   1.266       .  A
O759        V762   1.899       .  S
O760        C763   1.265       .  A
V761       O1044   1.904   1_545  S
V761        V762   2.085       .  T
V762       O1045   1.904   1_545  S
C763        C809   1.476       .  S
C764        C822   1.468       .  S
C765        C801   1.472       .  S
C766        C805   1.471       .  S
O767        C777   1.265       .  A
O767        V775   1.907       .  S
O768        C778   1.265       .  A
O768        V775   1.904       .  S
O769        C779   1.262       .  A
O769        V775   1.891       .  S
O770        C780   1.264       .  A
O770        V775   1.896       .  S
O771        C780   1.265       .  A
O771        V776   1.905       .  S
O772        C779   1.264       .  A
O772        V776   1.902       .  S
O773        C778   1.265       .  A
O773        V776   1.898       .  S
O774        C777   1.264       .  A
O774        V776   1.899       .  S
V775        V776   2.083       .  T
C777        C816   1.478       .  S
C778        C830   1.476       .  S
C779        C793   1.463       .  S
C780        C797   1.474       .  S
C781        C802   1.521       .  S
C781        C846   1.519       .  S
C781        C790   1.468       .  S
C781        C791   1.473       .  S
C782        C834   1.519       .  S
C782        C862   1.516       .  S
C783        C794   1.515       .  S
C783        C806   1.518       .  S
C783        C792   1.466       .  S
C784        C798   1.516       .  S
C784        C850   1.515       .  S
C784        C786   1.470       .  S
C784        C788   1.478       .  S
C785        C786   1.208   1_455  T
C787        C788   1.208       .  T
C789        C790   1.206       .  T
C791        C792   1.204       .  T
C793        C794   1.346       .  D
C793        H795   1.086       .  S
C794        H796   1.089       .  S
C797        C798   1.349       .  D
C797        H799   1.087       .  S
C798        H800   1.088       .  S
C801        C802   1.348       .  D
C801        H803   1.085       .  S
C802        H804   1.088       .  S
C805        C806   1.346       .  D
C805        H807   1.087       .  S
C806        H808   1.089       .  S
C809        C810   1.348       .  D
C809        H811   1.087       .  S
C810        H812   1.089       .  S
C813       C1040   1.480       .  S
C813        C814   1.210       .  T
C815        C816   1.349       .  D
C815        H817   1.089       .  S
C816        H818   1.087       .  S
C819        C820   1.212       .  T
C821        C822   1.346       .  D
C821        H823   1.089       .  S
C822        H824   1.085       .  S
C825        C826   1.206       .  T
C827        C828   1.208   1_545  T
C828       C1037   1.479       .  S
C829        C830   1.352       .  D
C829        H831   1.088       .  S
C830        H832   1.085       .  S
C833        C834   1.353       .  D
C833        H835   1.085       .  S
C834        H836   1.089       .  S
C837        C838   1.353       .  D
C837        H839   1.089       .  S
C838        H840   1.085       .  S
C841        C842   1.345       .  D
C841        H843   1.088       .  S
C842        H844   1.085       .  S
C845        C846   1.352       .  D
C845        H847   1.086       .  S
C846        H848   1.088       .  S
C849        C850   1.344       .  D
C849        H851   1.085       .  S
C850        H852   1.089       .  S
C853        C854   1.347       .  D
C853        H855   1.085       .  S
C854        H856   1.088       .  S
C857        C858   1.358       .  D
C857        H859   1.088       .  S
C858        H860   1.086       .  S
C861        C862   1.345       .  D
C861        H863   1.086       .  S
C862        H864   1.088   1_556  S
O865        C875   1.264       .  A
O866       C1020   1.262   1_554  A
O866        V873   1.895       .  S
O867        C877   1.264       .  A
O867        V873   1.898       .  S
O868       C1022   1.266   1_554  A
O869        C878   1.261       .  A
O870       C1021   1.274       .  A
O870        V874   1.923       .  S
O871        C876   1.256       .  A
O871        V874   1.866       .  S
O872       C1019   1.268       .  A
V873       V1018   2.085   1_554  T
V874       V1017   2.085   1_565  T
C875       O1016   1.266   1_554  A
C875       C1002   1.475       .  S
C876       O1010   1.272   1_565  A
C876        C997   1.477       .  S
C877       O1014   1.262   1_554  A
C877        C993   1.462       .  S
C878       O1012   1.264       .  A
C878       C1005   1.462       .  S
O879        C889   1.262       .  A
O879        V887   1.894       .  S
O880        C890   1.260       .  A
O880        V887   1.891       .  S
O881        C891   1.266       .  A
O881        V887   1.900       .  S
O882        C892   1.267       .  A
O882        V887   1.904       .  S
O883        C892   1.262       .  A
O883        V888   1.898       .  S
O884        C891   1.262       .  A
O884        V888   1.895       .  S
O885        C890   1.266       .  A
O885        V888   1.899       .  S
O886        C889   1.267       .  A
O886        V888   1.907       .  S
V887        V888   2.086       .  T
C889        C989   1.473       .  S
C890        C977   1.468       .  S
C891        C982   1.470       .  S
C892        C986   1.476       .  S
C893        C973   1.517       .  S
C893       C1001   1.523       .  S
C893       C1113   1.472   1_554  S
C894        C959   1.521       .  S
C894        C965   1.523       .  S
C894        C964   1.472       .  S
C894        C971   1.468       .  S
C895        C985   1.519       .  S
C895        C998   1.517       .  S
C895        C958   1.464       .  S
C895        C970   1.466       .  S
C896        C954   1.522       .  S
C896        C981   1.518       .  S
C896        C963   1.464       .  S
O897        C907   1.264       .  A
O898        C908   1.263       .  A
O898        V905   1.898       .  S
O899        C909   1.264       .  A
O899        V905   1.898       .  S
O900        C910   1.266       .  A
O901        C910   1.261       .  A
O902        C909   1.263       .  A
O902        V906   1.899       .  S
O903        C908   1.266       .  A
O903        V906   1.904       .  S
O904        C907   1.267       .  A
V905        V906   2.083       .  T
C907        C953   1.481       .  S
C908        C966   1.475       .  S
C909        C945   1.465       .  S
C910        C949   1.471       .  S
O911        C921   1.270       .  A
O911        V919   1.920       .  S
O912        C922   1.270       .  A
O912        V919   1.921       .  S
O913        C923   1.253       .  A
O913        V919   1.867       .  S
O914        C924   1.258       .  A
O914        V919   1.859       .  S
O915        C924   1.267       .  A
O915        V920   1.917       .  S
O916        C923   1.270       .  A
O916        V920   1.907       .  S
O917        C922   1.259       .  A
O917        V920   1.878       .  S
O918        C921   1.261       .  A
O918        V920   1.890       .  S
V919        V920   2.082       .  T
C921        C960   1.481       .  S
C922        C974   1.473       .  S
C923        C937   1.456       .  S
C924        C941   1.469       .  S
C925        C946   1.517       .  S
C925        C990   1.520       .  S
C925        C934   1.463       .  S
C925        C935   1.473       .  S
C926        C978   1.516       .  S
C926       C1006   1.503       .  S
C926       C1075   1.460       .  S
C927        C938   1.507       .  S
C927        C950   1.517       .  S
C927        C936   1.470       .  S
C928        C942   1.502       .  S
C928        C994   1.513       .  S
C928        C930   1.466       .  S
C928        C932   1.466       .  S
C929        C930   1.203       .  T
C931       C1070   1.462   1_554  S
C931        C932   1.202       .  T
C933        C934   1.202       .  T
C935        C936   1.205       .  T
C937        C938   1.331       .  D
C937        H939   1.088       .  S
C938        H940   1.090       .  S
C941        C942   1.349       .  D
C941        H943   1.087       .  S
C942        H944   1.090       .  S
C945        C946   1.345       .  D
C945        H947   1.086       .  S
C946        H948   1.089       .  S
C949        C950   1.344       .  D
C949        H951   1.087       .  S
C950        H952   1.088       .  S
C953        C954   1.347       .  D
C953        H955   1.087       .  S
C954        H956   1.088       .  S
C957        C958   1.204   1_545  T
C959        C960   1.354       .  D
C959        H961   1.088       .  S
C960        H962   1.086       .  S
C963        C964   1.204       .  T
C965        C966   1.349       .  D
C965        H967   1.088       .  S
C966        H968   1.085       .  S
C969       C1037   1.460       .  S
C969        C970   1.201       .  T
C971        C972   1.206       .  T
C973        C974   1.352       .  D
C973        H975   1.089       .  S
C974        H976   1.086       .  S
C977        C978   1.343       .  D
C977        H979   1.085       .  S
C978        H980   1.089       .  S
C981        C982   1.346       .  D
C981        H983   1.089       .  S
C982        H984   1.085       .  S
C985        C986   1.345       .  D
C985        H987   1.089       .  S
C986        H988   1.087       .  S
C989        C990   1.345       .  D
C989        H991   1.087       .  S
C990        H992   1.088       .  S
C993        C994   1.344       .  D
C993        H995   1.086   1_655  S
C994        H996   1.089       .  S
C997        C998   1.360       .  D
C997        H999   1.085       .  S
C998       H1000   1.088       .  S
C1001      C1002   1.349       .  D
C1001      H1003   1.088   1_554  S
C1002      H1004   1.087       .  S
C1005      C1006   1.340       .  D
C1005      H1007   1.087       .  S
C1006      H1008   1.089       .  S
O1009      C1019   1.261       .  A
O1010      V1017   1.927       .  S
O1011      C1021   1.251       .  A
O1011      V1017   1.863   1_565  S
O1013      C1022   1.263       .  A
O1014      V1018   1.896       .  S
O1015      C1020   1.267       .  A
O1015      V1018   1.902       .  S
C1019      C1146   1.475       .  S
C1020      C1141   1.472       .  S
C1021      C1137   1.464       .  S
C1022      C1149   1.475       .  S
O1023      C1033   1.268       .  A
O1023      V1031   1.913       .  S
O1024      C1034   1.268       .  A
O1024      V1031   1.917       .  S
O1025      C1035   1.261       .  A
O1025      V1031   1.878       .  S
O1026      C1036   1.259       .  A
O1026      V1031   1.889       .  S
O1027      C1036   1.272       .  A
O1027      V1032   1.924       .  S
O1028      C1035   1.269       .  A
O1028      V1032   1.923       .  S
O1029      C1034   1.260       .  A
O1029      V1032   1.881       .  S
O1030      C1033   1.261       .  A
O1030      V1032   1.889       .  S
V1031      V1032   2.085       .  T
C1033      C1133   1.477       .  S
C1034      C1121   1.478       .  S
C1035      C1126   1.483       .  S
C1036      C1130   1.482       .  S
C1037      C1117   1.521       .  S
C1037      C1145   1.517       .  S
C1038      C1103   1.522       .  S
C1038      C1109   1.521       .  S
C1038      C1108   1.483       .  S
C1038      C1115   1.468       .  S
C1039      C1129   1.528       .  S
C1039      C1142   1.519       .  S
C1039      C1102   1.481       .  S
C1039      C1114   1.476       .  S
C1040      C1098   1.518       .  S
C1040      C1125   1.519       .  S
C1040      C1107   1.475       .  S
O1041      C1051   1.264       .  A
O1042      C1052   1.263       .  A
O1042      V1049   1.898       .  S
O1043      C1053   1.264       .  A
O1043      V1049   1.893       .  S
O1044      C1054   1.267       .  A
O1045      C1054   1.264       .  A
O1046      C1053   1.262       .  A
O1046      V1050   1.896       .  S
O1047      C1052   1.265       .  A
O1047      V1050   1.899       .  S
O1048      C1051   1.265       .  A
V1049      V1050   2.086       .  T
C1051      C1097   1.474       .  S
C1052      C1110   1.473       .  S
C1053      C1089   1.467       .  S
C1054      C1093   1.481       .  S
O1055      C1065   1.264       .  A
O1055      V1063   1.905       .  S
O1056      C1066   1.263       .  A
O1056      V1063   1.898       .  S
O1057      C1067   1.266       .  A
O1057      V1063   1.902       .  S
O1058      C1068   1.267       .  A
O1058      V1063   1.910       .  S
O1059      C1068   1.265       .  A
O1059      V1064   1.907       .  S
O1060      C1067   1.264       .  A
O1060      V1064   1.902       .  S
O1061      C1066   1.265       .  A
O1061      V1064   1.897       .  S
O1062      C1065   1.266       .  A
O1062      V1064   1.904       .  S
V1063      V1064   2.086       .  T
C1065      C1104   1.480       .  S
C1066      C1118   1.472       .  S
C1067      C1081   1.477       .  S
C1068      C1085   1.486       .  S
C1069      C1090   1.517       .  S
C1069      C1134   1.518       .  S
C1069      C1078   1.468       .  S
C1069      C1079   1.469       .  S
C1070      C1122   1.519       .  S
C1070      C1150   1.518       .  S
C1071      C1082   1.524       .  S
C1071      C1094   1.521       .  S
C1071      C1080   1.462       .  S
C1072      C1086   1.529       .  S
C1072      C1138   1.516       .  S
C1072      C1074   1.475       .  S
C1072      C1076   1.461       .  S
C1073      C1074   1.208   1_455  T
C1075      C1076   1.201       .  T
C1077      C1078   1.206       .  T
C1079      C1080   1.202       .  T
C1081      C1082   1.350       .  D
C1081      H1083   1.085       .  S
C1082      H1084   1.088       .  S
C1085      C1086   1.350       .  D
C1085      H1087   1.086       .  S
C1086      H1088   1.088       .  S
C1089      C1090   1.348       .  D
C1089      H1091   1.085       .  S
C1090      H1092   1.089       .  S
C1093      C1094   1.346       .  D
C1093      H1095   1.087       .  S
C1094      H1096   1.089       .  S
C1097      C1098   1.348       .  D
C1097      H1099   1.087       .  S
C1098      H1100   1.088       .  S
C1101      C1102   1.212       .  T
C1103      C1104   1.347       .  D
C1103      H1105   1.089       .  S
C1104      H1106   1.087       .  S
C1107      C1108   1.211       .  T
C1109      C1110   1.348       .  D
C1109      H1111   1.089       .  S
C1110      H1112   1.085       .  S
C1113      C1114   1.208       .  T
C1115      C1116   1.206       .  T
C1117      C1118   1.349       .  D
C1117      H1119   1.088       .  S
C1118      H1120   1.085       .  S
C1121      C1122   1.355       .  D
C1121      H1123   1.085       .  S
C1122      H1124   1.088       .  S
C1125      C1126   1.353       .  D
C1125      H1127   1.089       .  S
C1126      H1128   1.085       .  S
C1129      C1130   1.345       .  D
C1129      H1131   1.088       .  S
C1130      H1132   1.085       .  S
C1133      C1134   1.353       .  D
C1133      H1135   1.087       .  S
C1134      H1136   1.088       .  S
C1137      C1138   1.331       .  D
C1137      H1139   1.088       .  S
C1138      H1140   1.090       .  S
C1141      C1142   1.346       .  D
C1141      H1143   1.085       .  S
C1142      H1144   1.089       .  S
C1145      C1146   1.343       .  D
C1145      H1147   1.089       .  S
C1146      H1148   1.087       .  S
C1149      C1150   1.345       .  D
C1149      H1151   1.087       .  S
C1150      H1152   1.089   1_556  S
