geometry optimzed in LAMMPS
_audit_creation_date              2020-11-30 
_audit_creation_method            'lammps2cif' 
_symmetry_space_group_name_H-M    'P1' 
_symmetry_Int_Tables_number       1 
_symmetry_cell_setting            triclinic 
loop_ 
_symmetry_equiv_pos_as_xyz 
  x,y,z 
_cell_length_a                    47.86934543 
_cell_length_b                    47.955984065557246 
_cell_length_c                    47.06384672969198 
_cell_angle_alpha                 89.86033270825155 
_cell_angle_beta                  89.9685904530439 
_cell_angle_gamma                 86.96951336507225 
loop_ 
_atom_site_label 
_atom_site_type_symbol 
_atom_site_fract_x 
_atom_site_fract_y 
_atom_site_fract_z 
_atom_site_charge 
N1          N  0.46842322  0.02957180  0.01306312    -0.35800
N2          N  0.02973556  0.02726482  0.48808173    -0.56400
N3          N  0.03025973  0.47587793  0.97668484    -0.35800
N4          N  0.47219204  0.47095362  0.99199672    -0.56400
C5          C  0.47341541  0.05534813  0.53825248     0.27800
C6          C  0.44074231  0.02582964  0.01139084     0.27800
C7          C  0.05139199  0.48061711  0.49422316     0.27800
C8          C  0.02520613  0.45090442  0.96522741     0.27800
C9          C  0.02487187  0.05514170  0.49037884     0.36400
C10         C  0.05541584  0.02313941  0.47660188     0.36400
C11         C  0.44652874  0.47364995  0.00375139     0.36400
C12         C  0.47764998  0.44339368  0.98793317     0.36400
C13         C  0.45152805  0.06533048  0.55535917    -0.21100
C14         C  0.42612871  0.05152293  0.00902443    -0.21100
C15         C  0.06233552  0.45871219  0.47769683    -0.21100
C16         C  0.04718726  0.44216371  0.94761931    -0.21100
C17         C  0.04767436  0.06891085  0.48038542    -0.22100
C18         C  0.06713934  0.04856444  0.47174923    -0.22100
C19         C  0.43525936  0.44776686  0.00660624    -0.22100
C20         C  0.45509843  0.42849829  0.99666768    -0.22100
C21         C  0.49604996  0.07096330  0.52984579    -0.17500
C22         C  0.42832450  0.00008062  0.01447400    -0.17500
C23         C  0.50209343  0.43178337  0.97504361    -0.17500
C24         C  0.06935808  0.99673548  0.47340520    -0.17500
H25         H  0.44921655  0.08546853  0.56567225     0.15400
H26         H  0.40369703  0.05555612  0.00779894     0.15400
H27         H  0.08258591  0.45699812  0.46741784     0.15400
H28         H  0.04968559  0.42266490  0.93612328     0.15400
H29         H  0.05029587  0.09119299  0.48004915     0.13700
H30         H  0.08776196  0.05204000  0.46344315     0.13700
H31         H  0.41480248  0.44329880  0.01470714     0.13700
H32         H  0.45296556  0.40617103  0.99556524     0.13700
H33         H  0.48387520  0.01445119  0.01847917     0.27000
H34         H  0.01970185  0.48506833  0.99378626     0.27000
N35         N  0.47619280  0.02370522  0.24459214    -0.35800
N36         N  0.03386754  0.02820104  0.25081359    -0.56400
N37         N  0.02302658  0.46683089  0.27197143    -0.35800
N38         N  0.46242755  0.46955185  0.25334673    -0.56400
C39         C  0.47757866  0.05166163  0.24648131     0.27800
C40         C  0.44885422  0.01839716  0.24286444     0.27800
C41         C  0.04836137  0.47223314  0.28260997     0.27800
C42         C  0.01696578  0.44121304  0.28128783     0.27800
C43         C  0.02692861  0.05533113  0.24523740     0.36400
C44         C  0.05944813  0.02742666  0.26293559     0.36400
C45         C  0.43686352  0.47284989  0.24131099     0.36400
C46         C  0.46825673  0.44178955  0.25587556     0.36400
C47         C  0.45085482  0.06433722  0.24554468    -0.21100
C48         C  0.43268666  0.04331625  0.24332586    -0.21100
C49         C  0.05855793  0.44981096  0.29889661    -0.21100
C50         C  0.03871095  0.43019149  0.29806620    -0.21100
C51         C  0.04835092  0.07188210  0.25354366    -0.22100
C52         C  0.06906099  0.05414544  0.26462436    -0.22100
C53         C  0.42598132  0.44699162  0.23678479    -0.22100
C54         C  0.44600347  0.42724272  0.24587961    -0.22100
C55         C  0.50234129  0.06610176  0.24710566    -0.17500
C56         C  0.43823018  0.99188174  0.23899121    -0.17500
C57         C  0.49276663  0.42977777  0.26859771    -0.17500
C58         C  0.07510934  0.00272060  0.27017641    -0.17500
H59         H  0.44503275  0.08645086  0.24614556     0.15400
H60         H  0.41014608  0.04614709  0.24189984     0.15400
H61         H  0.07847414  0.44759811  0.30977507     0.15400
H62         H  0.04034455  0.40989281  0.30821713     0.15400
H63         H  0.04919214  0.09429860  0.25137454     0.13700
H64         H  0.08900556  0.06017395  0.27275346     0.13700
H65         H  0.40577731  0.44282696  0.22789078     0.13700
H66         H  0.44423595  0.40483278  0.24554635     0.13700
H67         H  0.49292125  0.00947418  0.24110610     0.27000
H68         H  0.01247896  0.47806025  0.25605629     0.27000
Zr69       Zr  0.45678586  0.21373913  0.49854738     2.17500
O70         O  0.43498295  0.17607254  0.47343357    -0.50500
O71         O  0.42178170  0.21052067  0.02617159    -0.73700
O72         O  0.47238643  0.16664234  0.00663278    -0.80500
O73         O  0.42469747  0.26818717  0.44814609    -0.82300
O74         O  0.01425434  0.17183730  0.03374236    -0.77900
O75         O  0.41753637  0.22501142  0.46595993    -0.89500
O76         O  0.42650587  0.24549699  0.05799491    -0.75500
O77         O  0.48247870  0.21973171  0.03502621    -0.85000
O78         O  0.44782512  0.26069798  0.00547689    -0.84700
O79         O  0.00991616  0.20768281  0.47737699    -0.71400
O80         O  0.47737815  0.23368603  0.45685967    -0.83600
Zr81       Zr  0.03940379  0.29266931  0.00602355     2.26400
Zr82       Zr  0.02990655  0.21905849  0.03367080     2.06300
Zr83       Zr  0.47056467  0.28301958  0.46260200     2.10000
Zr84       Zr  0.47098236  0.26638455  0.04938563     1.78800
O85         O  0.47401563  0.28711455  0.41115057    -0.92400
O86         O  0.47715272  0.24237299  0.09451853    -0.40200
O87         O  0.48868406  0.29690884  0.01408329    -0.76800
O88         O  0.02078564  0.26717556  0.04521487    -0.95500
O89         O  0.04931236  0.24451397  0.48864276    -0.88800
O90         O  0.01268663  0.28670746  0.46338254    -0.91600
C91         C  0.41320823  0.22531564  0.04752734     1.02100
C92         C  0.40993312  0.24676519  0.45117286     1.15100
C93         C  0.49341609  0.15436013  0.01922916     1.05800
O94         O  0.02549171  0.21397377  0.08497981    -0.93800
O95         O  0.07648902  0.23312626  0.04583235    -0.89500
O96         O  0.08173061  0.27815673  0.03231068    -0.82700
C97         C  0.09066895  0.25504368  0.04387785     1.12500
O98         O  0.00866971  0.21606020  0.40441275    -0.95800
Zr99       Zr  0.02566107  0.24191567  0.44473563     1.88900
O100        O  0.07437041  0.29615495  0.47421637    -0.72400
O101        O  0.06875011  0.18400308  0.03237116    -0.51700
O102        O  0.05625735  0.20184548  0.43130976    -0.96300
O103        O  0.02355583  0.27138693  0.40252356    -0.53600
O104        O  0.07160674  0.26138446  0.44181891    -0.72900
C105        C  0.08432562  0.28139867  0.45343522     0.99400
O106        O  0.05376109  0.32919713  0.03809971    -0.61700
O107        O  0.43544966  0.32177556  0.46411025    -0.56500
O108        O  0.02202786  0.33716184  0.49760600    -0.93200
O109        O  0.48764290  0.32932723  0.46061960    -0.91700
O110        O  0.43798927  0.30601998  0.05750591    -0.92000
O111        O  0.48507545  0.29763709  0.08679118    -0.90800
C112        C  0.99927491  0.35000421  0.48939895     1.18300
H113        H  0.42785836  0.26429137  0.00725350     0.34200
H114        H  0.03030739  0.27156723  0.06259570     0.45100
H115        H  0.01814337  0.30148734  0.45091115     0.38600
H116        H  0.01403124  0.18949886  0.46907805     0.35100
H117        H  0.47319851  0.22269325  0.09061899     0.26900
H118        H  0.06609332  0.17162546  0.04891792     0.32800
H119        H  0.07516399  0.20640638  0.43773638     0.38700
H120        H  0.42125545  0.30198776  0.04618782     0.33200
H121        H  0.42761998  0.32313751  0.44465272     0.32000
H122        H  0.47971266  0.30639007  0.40775352     0.33700
H123        H  0.03698367  0.28606851  0.40568272     0.32700
H124        H  0.00058061  0.32064839  0.07598354     0.36700
H125        H  0.03718507  0.34230202  0.04006519     0.29400
H126        H  0.42330910  0.16694343  0.48772989     0.33700
H127        H  0.99717834  0.20165499  0.41297393     0.36500
H128        H  0.43559924  0.33220251  0.00181948     0.29100
H129        H  0.05546510  0.32012573  0.05698071     0.42000
H130        H  0.02783872  0.19361378  0.08846015     0.32000
H131        H  0.49756932  0.24197365  0.09793668     0.39700
H132        H  0.00491571  0.28130574  0.40316178     0.31500
H133        H  0.06429096  0.17231437  0.48598567     0.31600
H134        H  0.45031673  0.16210874  0.46891407     0.31800
Zr135      Zr  0.03948318  0.28207284  0.24771812     2.17500
O136        O  0.06120916  0.31899825  0.22117426    -0.50500
O137        O  0.07790547  0.27946460  0.28297380    -0.73700
O138        O  0.02446617  0.32944525  0.26365518    -0.80500
O139        O  0.07613210  0.22484820  0.20379709    -0.82300
O140        O  0.47902700  0.33338773  0.27678720    -0.77900
O141        O  0.07954267  0.27026120  0.21662791    -0.89500
O142        O  0.06935881  0.24299363  0.31212211    -0.75500
O143        O  0.01480571  0.27377498  0.29084589    -0.85000
O144        O  0.04869639  0.23398774  0.25905690    -0.84700
O145        O  0.49012521  0.29268571  0.23288032    -0.71400
O146        O  0.02230253  0.25598413  0.20804369    -0.83600
Zr147      Zr  0.45789300  0.21067384  0.25527092     2.26400
Zr148      Zr  0.46347765  0.28662756  0.27549710     2.06300
Zr149      Zr  0.03175251  0.20803345  0.22034144     2.10000
Zr150      Zr  0.02392802  0.22566876  0.30173839     1.78800
O151        O  0.03396818  0.19615047  0.17009340    -0.92400
O152        O  0.01674906  0.24668533  0.34815224    -0.40200
O153        O  0.00723127  0.19849499  0.26338621    -0.76800
O154        O  0.47263550  0.24031012  0.29287392    -0.95500
O155        O  0.44781202  0.25704231  0.23902520    -0.88800
O156        O  0.48389678  0.21561174  0.21232906    -0.91600
C157        C  0.08479061  0.26221345  0.30319565     1.02100
C158        C  0.08901513  0.24768208  0.20441762     1.15100
C159        C  0.00224969  0.34148001  0.27449976     1.05800
O160        O  0.45650341  0.30173498  0.32444484    -0.93800
O161        O  0.41820559  0.27140810  0.29075761    -0.89500
O162        O  0.41420320  0.22575833  0.27912115    -0.82700
C163        C  0.40474141  0.24895345  0.29005300     1.12500
O164        O  0.49107322  0.29056909  0.15811811    -0.95800
Zr165      Zr  0.47382758  0.26220845  0.19678446     1.88900
O166        O  0.42288445  0.20628419  0.21820883    -0.72400
O167        O  0.42651162  0.31829693  0.25652925    -0.51700
O168        O  0.44400952  0.30398372  0.18712845    -0.96300
O169        O  0.47976593  0.23700181  0.15224930    -0.53600
O170        O  0.42774212  0.24355547  0.18905057    -0.72900
C171        C  0.41431701  0.22268475  0.19806664     0.99400
O172        O  0.44077021  0.17705961  0.28942429    -0.61700
O173        O  0.06867512  0.17318199  0.23289915    -0.56500
O174        O  0.47198814  0.16274549  0.24328189    -0.93200
O175        O  0.01575457  0.16119566  0.21878126    -0.91700
O176        O  0.05412335  0.18408178  0.31049628    -0.92000
O177        O  0.00786762  0.19252507  0.33665143    -0.90800
C178        C  0.49530391  0.15004931  0.23655228     1.18300
H179        H  0.06846594  0.22939987  0.26101412     0.34200
H180        H  0.46168141  0.23739853  0.30976791     0.45100
H181        H  0.47862618  0.20210549  0.19842028     0.38600
H182        H  0.48719628  0.31155898  0.22586546     0.35100
H183        H  0.03292601  0.23889389  0.35923149     0.26900
H184        H  0.42180697  0.33150415  0.27216478     0.32800
H185        H  0.42888961  0.29764076  0.17474971     0.38700
H186        H  0.06134546  0.17848256  0.29153998     0.33200
H187        H  0.07697514  0.16703485  0.21453444     0.32000
H188        H  0.04957847  0.18184265  0.16859254     0.33700
H189        H  0.46708651  0.22137864  0.15320308     0.32700
H190        H  0.49066320  0.19085853  0.33126581     0.36700
H191        H  0.45674816  0.16366180  0.29335616     0.29400
H192        H  0.07073679  0.33022806  0.23550460     0.33700
H193        H  0.47638084  0.29074223  0.14330653     0.36500
H194        H  0.08343508  0.18364799  0.24215360     0.29100
H195        H  0.43843144  0.18746829  0.30749360     0.42000
H196        H  0.44483039  0.31935193  0.32304655     0.32000
H197        H  0.02064740  0.26657836  0.34545660     0.39700
H198        H  0.49883988  0.22806218  0.15314711     0.31500
H199        H  0.43567508  0.32963851  0.24198084     0.31600
H200        H  0.04561938  0.33139428  0.21387203     0.31800
Zr201      Zr  0.21292199  0.46273451  0.00718654     2.17500
O202        O  0.17759041  0.44617239  0.03955102    -0.50500
O203        O  0.20484502  0.42470299  0.47418567    -0.73700
O204        O  0.16331451  0.47756074  0.49989777    -0.80500
O205        O  0.27203774  0.42501041  0.04740205    -0.82300
O206        O  0.16612623  0.01480724  0.46538419    -0.77900
O207        O  0.22612283  0.42161514  0.03610639    -0.89500
O208        O  0.23761492  0.42894613  0.43965893    -0.75500
O209        O  0.21292699  0.48687633  0.46460498    -0.85000
O210        O  0.25651873  0.45035967  0.48869567    -0.84700
O211        O  0.20156508  0.01201823  0.01489171    -0.71400
O212        O  0.24236337  0.48021309  0.04392495    -0.83600
Zr213      Zr  0.28656309  0.04033096  0.49547914     2.26400
Zr214      Zr  0.21229130  0.03190384  0.47013937     2.06300
Zr215      Zr  0.28889454  0.46825874  0.02851031     2.10000
Zr216      Zr  0.25744221  0.47456563  0.44469341     1.78800
O217        O  0.30184152  0.46632327  0.07851648    -0.92400
O218        O  0.22558365  0.48167985  0.40469596    -0.40200
O219        O  0.29179244  0.49028853  0.47717261    -0.76800
O220        O  0.26001794  0.02111634  0.45750462    -0.95500
O221        O  0.23818265  0.05208517  0.00606427    -0.88800
O222        O  0.27812565  0.01829309  0.03739743    -0.91600
C223        C  0.21855697  0.41557681  0.45223729     1.02100
C224        C  0.24912845  0.41224183  0.04765867     1.15100
C225        C  0.15027602  0.50002964  0.49117979     1.05800
O226        O  0.20346217  0.03302921  0.41920719    -0.93800
O227        O  0.22688417  0.07705973  0.45421116    -0.89500
O228        O  0.27196321  0.08221042  0.46778019    -0.82700
C229        C  0.24902779  0.09096919  0.45555900     1.12500
O230        O  0.19622790  0.01828351  0.08561380    -0.95800
Zr231      Zr  0.23118113  0.03035134  0.05053717     1.88900
O232        O  0.28849894  0.07859985  0.02641051    -0.72400
O233        O  0.17747941  0.06894358  0.48219388    -0.51700
O234        O  0.19370870  0.06655184  0.05435481    -0.96300
O235        O  0.25044244  0.02248307  0.09769187    -0.53600
O236        O  0.25452126  0.07369656  0.05958379    -0.72900
C237        C  0.27440374  0.08707497  0.04832084     0.99400
O238        O  0.32251829  0.05473452  0.46248905    -0.61700
O239        O  0.32323815  0.43092917  0.01607610    -0.56500
O240        O  0.33206299  0.02677875  0.00857873    -0.93200
O241        O  0.33624996  0.48249536  0.02668796    -0.91700
O242        O  0.29700159  0.44423925  0.42939954    -0.92000
O243        O  0.28353043  0.48723083  0.40254632    -0.90800
C244        C  0.34395868  0.00488233  0.01994500     1.18300
H245        H  0.25977732  0.43048344  0.48640542     0.34200
H246        H  0.26432766  0.03021557  0.43982557     0.45100
H247        H  0.29123983  0.02451756  0.05129578     0.38600
H248        H  0.18255008  0.01619092  0.02102545     0.35100
H249        H  0.20724382  0.47557435  0.41132785     0.26900
H250        H  0.16461782  0.07032737  0.46572576     0.32800
H251        H  0.19985831  0.08211699  0.04241816     0.38700
H252        H  0.29650581  0.42758330  0.44181719     0.33200
H253        H  0.32881088  0.42213254  0.03441291     0.32000
H254        H  0.31834384  0.45300301  0.07934066     0.33700
H255        H  0.27021344  0.02738389  0.09629770     0.32700
H256        H  0.31834280  0.99020911  0.42863403     0.36700
H257        H  0.33588589  0.03835805  0.46072265     0.29400
H258        H  0.16466345  0.43587743  0.02751839     0.33700
H259        H  0.19490283  0.03407076  0.09915946     0.36500
H260        H  0.31024147  0.41591315  0.49374534     0.29100
H261        H  0.31324085  0.05587507  0.44369156     0.42000
H262        H  0.18436580  0.04180338  0.41726818     0.32000
H263        H  0.22296626  0.50219830  0.40270106     0.39700
H264        H  0.25128047  0.00193520  0.10005745     0.31500
H265        H  0.16432142  0.06524181  0.99672609     0.31600
H266        H  0.16657887  0.46312891  0.04575686     0.31800
Zr267      Zr  0.29769195  0.03747541  0.25421033     2.17500
O268        O  0.33598996  0.05347014  0.28317046    -0.50500
O269        O  0.30044541  0.07675738  0.22034028    -0.73700
O270        O  0.34390740  0.01990983  0.23848978    -0.80500
O271        O  0.24354087  0.07774363  0.29888969    -0.82300
O272        O  0.32621414  0.48481314  0.21743755    -0.77900
O273        O  0.28974073  0.07601091  0.28726226    -0.89500
O274        O  0.26348467  0.07432096  0.19040584    -0.75500
O275        O  0.28869243  0.01565661  0.20994346    -0.85000
O276        O  0.25089914  0.05217106  0.24231836    -0.84700
O277        O  0.28888657  0.49282455  0.25986480    -0.71400
O278        O  0.26878622  0.02142983  0.29231360    -0.83600
Zr279      Zr  0.20593491  0.46090114  0.24476759     2.26400
Zr280      Zr  0.27853829  0.47060428  0.21546687     2.06300
Zr281      Zr  0.22201913  0.03622433  0.27948855     2.10000
Zr282      Zr  0.24190482  0.03043137  0.19825845     1.78800
O283        O  0.20997157  0.03761512  0.32973607    -0.92400
O284        O  0.26560067  0.02627128  0.15283581    -0.40200
O285        O  0.21180200  0.01464253  0.23489113    -0.76800
O286        O  0.23019914  0.47914892  0.20458206    -0.95500
O287        O  0.25417735  0.45142267  0.25443987    -0.88800
O288        O  0.21509423  0.48370063  0.28857175    -0.91600
C289        C  0.28444605  0.08676293  0.20032242     1.02100
C290        C  0.26814661  0.08756907  0.29948513     1.15100
C291        C  0.35468399  0.99734074  0.22751502     1.05800
O292        O  0.27714221  0.47694937  0.16413151    -0.93800
O293        O  0.26644057  0.42212566  0.20999631    -0.89500
O294        O  0.22029684  0.41804260  0.21951563    -0.82700
C295        C  0.24424119  0.40822071  0.21063163     1.12500
O296        O  0.30172164  0.48706523  0.32804860    -0.95800
Zr297      Zr  0.26315419  0.47367001  0.29804942     1.88900
O298        O  0.20501629  0.42393068  0.27999134    -0.72400
O299        O  0.31346417  0.43379563  0.20261078    -0.51700
O300        O  0.30117747  0.43789477  0.30059093    -0.96300
O301        O  0.24699678  0.48023590  0.34669819    -0.53600
O302        O  0.24245354  0.42931805  0.30876750    -0.72900
C303        C  0.22147558  0.41584036  0.30020033     0.99400
O304        O  0.16884281  0.44594308  0.21362051    -0.61700
O305        O  0.19097501  0.07678788  0.26856949    -0.56500
O306        O  0.15997279  0.47149466  0.26476603    -0.93200
O307        O  0.17339582  0.02370874  0.27959219    -0.91700
O308        O  0.20400734  0.06570247  0.19137375    -0.92000
O309        O  0.20919422  0.01802311  0.16137523    -0.90800
C310        C  0.14770632  0.49294953  0.27642965     1.18300
H311        H  0.24839019  0.07225179  0.24118221     0.34200
H312        H  0.22537850  0.46935944  0.18751373     0.45100
H313        H  0.20347469  0.47700177  0.30365074     0.38600
H314        H  0.30809035  0.48936935  0.26561523     0.35100
H315        H  0.28401578  0.03431733  0.15563720     0.26900
H316        H  0.32466467  0.44139919  0.18697506     0.32800
H317        H  0.31130326  0.43938307  0.28234585     0.38700
H318        H  0.19017110  0.06179444  0.20631079     0.33200
H319        H  0.18373427  0.08333900  0.28724009     0.32000
H320        H  0.19536794  0.05293214  0.33137509     0.33700
H321        H  0.22869201  0.47158108  0.34749803     0.32700
H322        H  0.17431673  0.50039702  0.17669610     0.36700
H323        H  0.15555038  0.46238112  0.21174965     0.29400
H324        H  0.34913242  0.06200245  0.26986192     0.33700
H325        H  0.30215692  0.47387368  0.34428127     0.36500
H326        H  0.20335078  0.09150569  0.26226196     0.29100
H327        H  0.17756952  0.44416914  0.19459147     0.42000
H328        H  0.27282534  0.45840277  0.15659286     0.32000
H329        H  0.26992714  0.00599849  0.15064847     0.39700
H330        H  0.24241181  0.50053825  0.34825805     0.31500
H331        H  0.32640158  0.43174400  0.21898848     0.31600
H332        H  0.34610637  0.03634445  0.29038673     0.31800
O333        O  0.32560355  0.26193352  0.07813855    -0.74500
O334        O  0.33227133  0.21729659  0.09485247    -0.53400
C335        C  0.34064979  0.23927641  0.08211105     0.79200
O336        O  0.25371909  0.32266286  0.18200223    -0.59100
O337        O  0.21197456  0.32943115  0.15894107    -0.52100
C338        C  0.23081902  0.33702855  0.17638927     0.71300
O339        O  0.32585864  0.26042292  0.17064129    -0.73600
O340        O  0.33229086  0.21609773  0.15331580    -0.54200
C341        C  0.34101648  0.23799631  0.16575945     0.77300
O342        O  0.25552458  0.32697235  0.07460710    -0.58800
O343        O  0.21303110  0.33212546  0.09656876    -0.51900
C344        C  0.23250606  0.34097280  0.08047249     0.73900
Zr345      Zr  0.27805566  0.28104454  0.08476619     2.54700
O346        O  0.31190663  0.31701556  0.08090438    -0.79400
O347        O  0.27624908  0.27682953  0.03332496    -0.92800
Zr348      Zr  0.27701969  0.27754626  0.16907471     2.64700
O349        O  0.31086270  0.31093514  0.18379812    -0.97700
O350        O  0.27266232  0.26547142  0.21907026    -0.79800
O351        O  0.29690647  0.25978279  0.12634237    -0.83100
O352        O  0.25843618  0.29948885  0.12747781    -2.17900
O353        O  0.17639410  0.24727584  0.07123637    -0.66500
O354        O  0.16976970  0.28873073  0.09457938    -0.51100
C355        C  0.16185123  0.26985868  0.07742440     0.72200
O356        O  0.24341103  0.17455572  0.17301006    -0.59400
O357        O  0.28733292  0.16898204  0.15411245    -0.51400
C358        C  0.26646669  0.16019198  0.16839337     0.74000
O359        O  0.17507714  0.24266366  0.17725365    -0.70800
O360        O  0.16884813  0.28565619  0.15649307    -0.49500
C361        C  0.16057294  0.26561948  0.17220071     0.75400
O362        O  0.23964769  0.17586843  0.07788411    -0.66200
O363        O  0.28444994  0.16916910  0.09407185    -0.53400
C364        C  0.26221838  0.16060392  0.08191993     0.73800
Zr365      Zr  0.22258980  0.22457964  0.08119252     2.77500
O366        O  0.18948665  0.19196149  0.06304223    -0.96900
O367        O  0.23440330  0.23078802  0.03135203    -0.77700
Zr368      Zr  0.22144096  0.22118282  0.16579994     2.70100
O369        O  0.18662802  0.18630083  0.17070653    -0.79000
O370        O  0.22668813  0.22452666  0.21706453    -0.98100
Zr371      Zr  0.29037263  0.21077334  0.12406450     2.21500
Zr372      Zr  0.20981732  0.29039318  0.12615368     2.11100
O373        O  0.20167826  0.24160279  0.12393345    -2.46800
O374        O  0.24136902  0.20332940  0.12305543    -0.78800
O375        O  0.22969863  0.27309625  0.08258399    -0.71000
O376        O  0.27014642  0.22877294  0.16765417    -2.31900
O377        O  0.27128000  0.23224752  0.08148989    -2.28100
O378        O  0.22862893  0.26957643  0.16866268    -0.72700
H379        H  0.26127487  0.31925348  0.12831231     0.79300
H380        H  0.27880673  0.21948062  0.18389938     0.80400
H381        H  0.18193185  0.23841181  0.12361412     0.82600
H382        H  0.28039568  0.22430135  0.06481078     0.80200
H383        H  0.29198682  0.25999045  0.22512372     0.43200
H384        H  0.20846806  0.21911742  0.22467789     0.42200
H385        H  0.18007487  0.18327435  0.15105492     0.41900
H386        H  0.17339555  0.19323943  0.07629813     0.39800
H387        H  0.22156228  0.24636592  0.02484237     0.42900
H388        H  0.29403834  0.28423683  0.02668662     0.37700
H389        H  0.32256726  0.31568597  0.09893117     0.43800
H390        H  0.30661945  0.32791041  0.17222916     0.40300
H391        H  0.18225058  0.20017768  0.04499408     0.45200
H392        H  0.26168600  0.29105364  0.02730545     0.43900
H393        H  0.30546381  0.31628826  0.20343261     0.44000
H394        H  0.23995867  0.20879557  0.22223516     0.44400
O395        O  0.32057422  0.25714406  0.32098690    -0.74500
O396        O  0.32490797  0.21311668  0.33961982    -0.53400
C397        C  0.33383873  0.23328383  0.32449857     0.79200
O398        O  0.25696644  0.32391361  0.43037429    -0.59100
O399        O  0.21388179  0.33327249  0.41065910    -0.52100
C400        C  0.23479374  0.33988144  0.42610128     0.71300
O401        O  0.32407932  0.25468716  0.42473921    -0.73600
O402        O  0.32828504  0.21284037  0.40155985    -0.54200
C403        C  0.33780037  0.23181711  0.41787472     0.77300
O404        O  0.25731223  0.32783841  0.32690309    -0.58800
O405        O  0.21572795  0.33626652  0.35019342    -0.51900
C406        C  0.23613366  0.34374324  0.33432921     0.73900
Zr407      Zr  0.27565044  0.28016007  0.33386013     2.54700
O408        O  0.31271102  0.31287405  0.33050391    -0.79400
O409        O  0.26855056  0.27808188  0.28275978    -0.92800
Zr410      Zr  0.27760726  0.27743189  0.41789352     2.64700
O411        O  0.31437774  0.31040912  0.42231293    -0.97700
O412        O  0.27512840  0.27112894  0.46902117    -0.79800
O413        O  0.29566752  0.25848162  0.37467494    -0.83100
O414        O  0.25807544  0.29929482  0.37713200    -2.17900
O415        O  0.17222758  0.25364459  0.32303243    -0.66500
O416        O  0.16821680  0.29519606  0.34669136    -0.51100
C417        C  0.15908082  0.27698600  0.32939119     0.72200
O418        O  0.24160573  0.17660311  0.42699700    -0.59400
O419        O  0.28319099  0.16978667  0.40354251    -0.51400
C420        C  0.26412350  0.16186966  0.42062459     0.74000
O421        O  0.17295235  0.24428939  0.42687180    -0.70800
O422        O  0.16665422  0.28816928  0.40787955    -0.49500
C423        C  0.15815945  0.26697133  0.42191366     0.75400
O424        O  0.23190286  0.17881912  0.32565232    -0.66200
O425        O  0.27563607  0.16898952  0.34365543    -0.53400
C426        C  0.25347488  0.16224613  0.33000406     0.73800
Zr427      Zr  0.21656866  0.22739307  0.33316635     2.77500
O428        O  0.17900414  0.19576474  0.32590726    -0.96900
O429        O  0.22419791  0.23131876  0.28227327    -0.77700
Zr430      Zr  0.21942911  0.22316995  0.41736700     2.70100
O431        O  0.18582942  0.18698684  0.42121724    -0.79000
O432        O  0.22264882  0.22686234  0.46880239    -0.98100
Zr433      Zr  0.28564669  0.21034108  0.37266028     2.21500
Zr434      Zr  0.20868424  0.29379937  0.37842416     2.11100
O435        O  0.19891300  0.24529652  0.37652779    -2.46800
O436        O  0.23649680  0.20481922  0.37381515    -0.78800
O437        O  0.22648463  0.27532153  0.33428388    -0.71000
O438        O  0.26823096  0.22929852  0.41682267    -2.31900
O439        O  0.26562434  0.23233725  0.33110997    -2.28100
O440        O  0.22865740  0.27145333  0.42005890    -0.72700
H441        H  0.26233988  0.31869923  0.37804365     0.79300
H442        H  0.27717513  0.21979856  0.43281994     0.80400
H443        H  0.17905571  0.24276024  0.37602607     0.82600
H444        H  0.27337194  0.22390111  0.31398791     0.80200
H445        H  0.29479709  0.27182378  0.47535708     0.43200
H446        H  0.21226713  0.24467031  0.47345766     0.42200
H447        H  0.18563774  0.17847721  0.40206979     0.41900
H448        H  0.16485242  0.20097962  0.34058293     0.39800
H449        H  0.20674930  0.24078539  0.27501748     0.42900
H450        H  0.28375634  0.28886789  0.27470089     0.37700
H451        H  0.31568815  0.31885149  0.35035534     0.43800
H452        H  0.30890092  0.32591654  0.40918003     0.40100
H453        H  0.17017499  0.20152468  0.30764950     0.45200
H454        H  0.25130018  0.28990307  0.27925935     0.43900
H455        H  0.31199795  0.31847351  0.44155910     0.44000
H456        H  0.21062463  0.21224246  0.47606708     0.44400
C457        C  0.28907637  0.11514450  0.18857364    -0.15600
C458        C  0.26678716  0.13107950  0.17925360    -0.30800
H459        H  0.30968923  0.12353125  0.18936556     0.13400
H460        H  0.24618233  0.12274996  0.18130133     0.14000
C461        C  0.22602128  0.36471063  0.19022686    -0.15600
C462        C  0.24735174  0.37900192  0.20035671    -0.30800
H463        H  0.20505607  0.37455879  0.18978665     0.13400
H464        H  0.26852905  0.36974785  0.19891687     0.14000
C465        C  0.27223667  0.11445831  0.31452903    -0.15600
C466        C  0.25099391  0.13359308  0.31832866    -0.30800
H467        H  0.29334193  0.11961809  0.32019565     0.13400
H468        H  0.23034272  0.12861431  0.31088214     0.14000
C469        C  0.21634801  0.38858106  0.31374070    -0.15600
C470        C  0.23762909  0.37306381  0.32512909    -0.30800
H471        H  0.19598592  0.37984555  0.31148683     0.13400
H472        H  0.25845108  0.38109038  0.32466301     0.14000
C473        C  0.24665651  0.11933308  0.44277194    -0.15600
C474        C  0.26842845  0.13371231  0.43380779    -0.30800
H475        H  0.22558172  0.12839588  0.43962191     0.13400
H476        H  0.28948718  0.12414049  0.43485942     0.14000
C477        C  0.23539679  0.36832802  0.43867055    -0.15600
C478        C  0.21352089  0.38708647  0.44145312    -0.30800
H479        H  0.25580938  0.37450242  0.44572150     0.13400
H480        H  0.19239127  0.38136746  0.43667391     0.14000
C481        C  0.26036007  0.13095889  0.07304887    -0.15600
C482        C  0.28076617  0.11477175  0.06065694    -0.30800
H483        H  0.23953392  0.12299077  0.07410504     0.13400
H484        H  0.30107135  0.12313484  0.05677952     0.14000
C485        C  0.25066295  0.38432448  0.06132444    -0.15600
C486        C  0.22846605  0.36941392  0.06797651    -0.30800
H487        H  0.27153291  0.37553969  0.06615830     0.13400
H488        H  0.20736563  0.37841525  0.06500985     0.14000
C489        C  0.13215768  0.26900491  0.18510893    -0.15600
C490        C  0.11713392  0.24663372  0.19085969    -0.30800
H491        H  0.12312570  0.28992937  0.18886557     0.13400
H492        H  0.12593687  0.22602068  0.18522603     0.14000
C493        C  0.37067409  0.23924222  0.17444640    -0.15600
C494        C  0.38652252  0.21781762  0.18532390    -0.30800
H495        H  0.37891224  0.25994134  0.17464183     0.13400
H496        H  0.37776818  0.19750566  0.18777100     0.14000
C497        C  0.11299278  0.26171082  0.31636756    -0.15600
C498        C  0.13095478  0.28236969  0.31642862    -0.30800
H499        H  0.11949287  0.24229130  0.32706789     0.13400
H500        H  0.12476802  0.30290716  0.30810429     0.14000
C501        C  0.37631865  0.25100558  0.30261883    -0.15600
C502        C  0.36159474  0.22902846  0.31045758    -0.30800
H503        H  0.36764396  0.27199093  0.30686573     0.13400
H504        H  0.37064043  0.20791801  0.30799261     0.14000
C505        C  0.11283687  0.28691118  0.44278444    -0.15600
C506        C  0.12860603  0.26602532  0.43087721    -0.30800
H507        H  0.12170476  0.30688457  0.44690910     0.13400
H508        H  0.11999130  0.24553983  0.42944760     0.14000
C509        C  0.36654821  0.22715788  0.42998396    -0.15600
C510        C  0.38177095  0.24888870  0.43760691    -0.30800
H511        H  0.37540908  0.20594836  0.43218862     0.13400
H512        H  0.37327080  0.26993815  0.43323977     0.14000
C513        C  0.11947668  0.25244706  0.05530291    -0.15600
C514        C  0.13373320  0.27417730  0.06437839    -0.30800
H515        H  0.12876410  0.23139547  0.05772772     0.13400
H516        H  0.12386616  0.29510556  0.06399435     0.14000
C517        C  0.38553015  0.21964503  0.06019908    -0.15600
C518        C  0.36991782  0.24061514  0.07219514    -0.30800
H519        H  0.37688639  0.19936179  0.05729278     0.13400
H520        H  0.37811828  0.26134168  0.07233529     0.14000
C521        C  0.09327853  0.49370144  0.28048685    -0.12500
C522        C  0.11835084  0.49242174  0.28075821    -0.14000
C523        C  0.38441896  0.99381062  0.22712539    -0.12500
C524        C  0.40920894  0.99123628  0.23101262    -0.14000
C525        C  0.99623141  0.39640145  0.27554437    -0.12500
C526        C  0.00022830  0.37136325  0.27627135    -0.14000
C527        C  0.49992981  0.09562730  0.24135551    -0.12500
C528        C  0.49698043  0.12037653  0.23778730    -0.14000
C529        C  0.12052529  0.50147985  0.49303987    -0.12500
C530        C  0.09565237  0.50329926  0.49654315    -0.14000
C531        C  0.39866089  0.00085165  0.01954858    -0.12500
C532        C  0.37366849  0.00326779  0.02144369    -0.14000
C533        C  0.99739152  0.40466346  0.49416598    -0.12500
C534        C  0.99820005  0.37979450  0.49073982    -0.14000
C535        C  0.49395459  0.12472485  0.02166849    -0.12500
C536        C  0.49602187  0.09972353  0.02007333    -0.14000
N537        N  0.46825879  0.02959594  0.52868141    -0.35800
N538        N  0.02627894  0.03543890  0.00120103    -0.56400
N539        N  0.02587256  0.47451670  0.50389747    -0.35800
N540        N  0.47175775  0.46608241  0.47618541    -0.56400
C541        C  0.47160785  0.05732390  0.01171134     0.27800
C542        C  0.44329393  0.02317612  0.53940558     0.27800
C543        C  0.05534688  0.48302537  0.96695937     0.27800
C544        C  0.02036615  0.44907551  0.49366078     0.27800
C545        C  0.02326912  0.06124736  0.01263506     0.36400
C546        C  0.05393750  0.03009207  0.99704174     0.36400
C547        C  0.44639405  0.46979246  0.48846988     0.36400
C548        C  0.47769434  0.43827123  0.47532370     0.36400
C549        C  0.44565874  0.07145124  0.00931467    -0.21100
C550        C  0.43246169  0.04496677  0.55608151    -0.21100
C551        C  0.06628815  0.46253319  0.94868963    -0.21100
C552        C  0.04274985  0.43876640  0.47739444    -0.21100
C553        C  0.04914607  0.07262069  0.01538120    -0.22100
C554        C  0.06864586  0.05280617  0.00553483    -0.22100
C555        C  0.43570478  0.44419156  0.49478834    -0.22100
C556        C  0.45569486  0.42413973  0.48660153    -0.22100
C557        C  0.49716827  0.07015349  0.01459279    -0.17500
C558        C  0.42861652  0.99981193  0.53165932    -0.17500
C559        C  0.50223017  0.42569703  0.46333175    -0.17500
C560        C  0.06570725  0.00567820  0.98408242    -0.17500
H561        H  0.44121389  0.09379721  0.00825678     0.15400
H562        H  0.41252538  0.04632770  0.56699009     0.15400
H563        H  0.08643457  0.46180504  0.93817708     0.15400
H564        H  0.04494783  0.41876211  0.46679847     0.15400
H565        H  0.05345057  0.09315018  0.02323734     0.13700
H566        H  0.09100113  0.05503571  0.00433137     0.13700
H567        H  0.41567189  0.44040271  0.50432897     0.13700
H568        H  0.45412218  0.40177926  0.48850020     0.13700
H569        H  0.47879168  0.01893846  0.51237576     0.27000
H570        H  0.01462009  0.48539528  0.51954151     0.27000
N571        N  0.46930973  0.02627798  0.75230355    -0.35800
N572        N  0.02288529  0.03210142  0.72975386    -0.56400
N573        N  0.03795534  0.46999425  0.78050052    -0.35800
N574        N  0.47853192  0.46449493  0.74951590    -0.56400
C575        C  0.47307585  0.05391636  0.75316610     0.27800
C576        C  0.44152745  0.02314963  0.75449276     0.27800
C577        C  0.06548548  0.47506194  0.78000885     0.27800
C578        C  0.03606845  0.44196903  0.78017932     0.27800
C579        C  0.01966316  0.05861561  0.72031368     0.36400
C580        C  0.05063206  0.02652325  0.73278167     0.36400
C581        C  0.45299632  0.46664154  0.73722189     0.36400
C582        C  0.48464067  0.43700093  0.75393824     0.36400
C583        C  0.44742502  0.06856359  0.75597418    -0.21100
C584        C  0.42746171  0.04907560  0.75686896    -0.21100
C585        C  0.08124550  0.44990882  0.77991109    -0.21100
C586        C  0.06267464  0.42902773  0.78010743    -0.21100
C587        C  0.04550406  0.07011488  0.71747068    -0.22100
C588        C  0.06519974  0.04969949  0.72536246    -0.22100
C589        C  0.44253878  0.44041576  0.73420308    -0.22100
C590        C  0.46259596  0.42160617  0.74481258    -0.22100
C591        C  0.49875438  0.06619250  0.74891678    -0.17500
C592        C  0.42853265  0.99771161  0.75179774    -0.17500
C593        C  0.50922818  0.42576893  0.76729765    -0.17500
C594        C  0.06262993  0.00160915  0.74438277    -0.17500
H595        H  0.44345692  0.09097972  0.75680015     0.15400
H596        H  0.40511062  0.05351065  0.75851584     0.15400
H597        H  0.10381140  0.44685888  0.77990115     0.15400
H598        H  0.06816745  0.40684002  0.78016406     0.15400
H599        H  0.04965334  0.09122448  0.71117432     0.13700
H600        H  0.08756900  0.05191188  0.72627755     0.13700
H601        H  0.42236997  0.43542620  0.72577718     0.13700
H602        H  0.46098248  0.39920245  0.74595771     0.13700
H603        H  0.48435423  0.01091321  0.74650519     0.27000
H604        H  0.02147408  0.48459171  0.78380628     0.27000
Zr605      Zr  0.45921926  0.21401273  0.99090102     2.17500
O606        O  0.44111052  0.17879866  0.95950278    -0.50500
O607        O  0.41805798  0.22132020  0.53271770    -0.73700
O608        O  0.46767806  0.16772449  0.51985522    -0.80500
O609        O  0.42225789  0.27327574  0.95057495    -0.82300
O610        O  0.01936564  0.16401743  0.51874859    -0.77900
O611        O  0.41895904  0.22723643  0.96117770    -0.89500
O612        O  0.42621780  0.26176919  0.55564119    -0.75500
O613        O  0.47995333  0.22568248  0.54163578    -0.85000
O614        O  0.45014008  0.26304878  0.50335823    -0.84700
O615        O  0.00826869  0.20975130  0.98889959    -0.71400
O616        O  0.47671583  0.24333276  0.95384487    -0.83600
Zr617      Zr  0.03646601  0.28904276  0.50787984     2.26400
Zr618      Zr  0.03392470  0.21134059  0.52187617     2.06300
Zr619      Zr  0.46564335  0.28995100  0.96961814     2.10000
Zr620      Zr  0.47321001  0.27501435  0.54592710     1.78800
O621        O  0.46244862  0.30608630  0.92058649    -0.92400
O622        O  0.47371735  0.26036912  0.59530539    -0.40200
O623        O  0.49348390  0.29603906  0.50541439    -0.76800
O624        O  0.02146256  0.25584113  0.54234950    -0.95500
O625        O  0.04951636  0.24475605  0.99584849    -0.88800
O626        O  0.01786104  0.28401854  0.96135702    -0.91600
C627        C  0.41077155  0.24166657  0.54948815     1.02100
C628        C  0.40966195  0.25028117  0.94979385     1.15100
C629        C  0.48905570  0.15560623  0.53213133     1.05800
O630        O  0.03939662  0.19210511  0.56963405    -0.93800
O631        O  0.07844996  0.22759182  0.53902089    -0.89500
O632        O  0.07982813  0.27451063  0.53231000    -0.82700
C633        C  0.09058404  0.25084300  0.54087707     1.12500
O634        O  0.01662723  0.19857825  0.91972579    -0.95800
Zr635      Zr  0.02845102  0.23623431  0.95156426     1.88900
O636        O  0.07689506  0.29537033  0.97141706    -0.72400
O637        O  0.07248631  0.18238678  0.50203953    -0.51700
O638        O  0.06438212  0.19837224  0.94922171    -0.96300
O639        O  0.02253613  0.25360440  0.90323879    -0.53600
O640        O  0.07280268  0.25802096  0.94238354    -0.72900
C641        C  0.08576368  0.27920720  0.95131325     0.99400
O642        O  0.04818471  0.32264522  0.54439508    -0.61700
O643        O  0.42825553  0.32323273  0.98464332    -0.56500
O644        O  0.02819873  0.33898496  0.98731345    -0.93200
O645        O  0.48261621  0.33639834  0.96831580    -0.91700
O646        O  0.44450856  0.31845528  0.54526089    -0.92000
O647        O  0.48986214  0.31088635  0.57726430    -0.90800
C648        C  0.00790658  0.35067808  0.97317287     1.18300
H649        H  0.43057174  0.26899451  0.50383220     0.34200
H650        H  0.03138725  0.25792692  0.56001152     0.45100
H651        H  0.02484287  0.29591280  0.94669129     0.38600
H652        H  0.01162294  0.19043418  0.98355860     0.35100
H653        H  0.45658659  0.26964689  0.60350464     0.26900
H654        H  0.07674001  0.16782059  0.51657421     0.32800
H655        H  0.07742665  0.20212298  0.96490893     0.38700
H656        H  0.44250775  0.32327949  0.52488044     0.33200
H657        H  0.41313688  0.31178475  0.99181169     0.32000
H658        H  0.44434622  0.31703279  0.91954800     0.33700
H659        H  0.03027564  0.27233942  0.90300666     0.32700
H660        H  0.00239738  0.29923632  0.58263260     0.36700
H661        H  0.02995883  0.33098993  0.55098011     0.29400
H662        H  0.42993221  0.16684416  0.97182131     0.33700
H663        H  0.03067709  0.19852027  0.90426552     0.36500
H664        H  0.42002941  0.31522665  0.47600958     0.29100
H665        H  0.05510418  0.31147431  0.56090271     0.42000
H666        H  0.04661417  0.17256447  0.56687174     0.32000
H667        H  0.46970454  0.24034089  0.59479959     0.39700
H668        H  0.00212225  0.25712983  0.90088891     0.31500
H669        H  0.06540389  0.17234835  0.01549422     0.31600
H670        H  0.45755988  0.16675370  0.95371901     0.31800
Zr671      Zr  0.04147102  0.28610811  0.74598386     2.17500
O672        O  0.05957228  0.32448260  0.71858606    -0.50500
O673        O  0.08179242  0.28035119  0.77837835    -0.73700
O674        O  0.03264665  0.33133656  0.76858314    -0.80500
O675        O  0.07276648  0.23100714  0.69610222    -0.82300
O676        O  0.48979035  0.33041226  0.78274945    -0.77900
O677        O  0.07977985  0.27440701  0.71322420    -0.89500
O678        O  0.07526975  0.24122506  0.80447078    -0.75500
O679        O  0.01956250  0.27581852  0.79000848    -0.85000
O680        O  0.04984895  0.23745185  0.75348012    -0.84700
O681        O  0.49362827  0.29176298  0.73606741    -0.71400
O682        O  0.02047876  0.26393471  0.70590644    -0.83600
Zr683      Zr  0.45917055  0.21064465  0.75597091     2.26400
Zr684      Zr  0.47089555  0.28457260  0.78067495     2.06300
Zr685      Zr  0.02902478  0.21523170  0.71457948     2.10000
Zr686      Zr  0.02819919  0.22703432  0.79732283     1.78800
O687        O  0.02470141  0.20774308  0.66367455    -0.92400
O688        O  0.03026580  0.24470770  0.84556420    -0.40200
O689        O  0.00774235  0.20330729  0.75877916    -0.76800
O690        O  0.47901534  0.23665364  0.79397179    -0.95500
O691        O  0.45056396  0.25835240  0.74390828    -0.88800
O692        O  0.48142781  0.21693068  0.71113037    -0.91600
C693        C  0.09006695  0.26113947  0.79612649     1.02100
C694        C  0.08709326  0.25273333  0.69841679     1.15100
C695        C  0.01229210  0.34371084  0.78208696     1.05800
O696        O  0.46898681  0.29626291  0.83100538    -0.93800
O697        O  0.42511344  0.27155907  0.79719697    -0.89500
O698        O  0.41770757  0.22742394  0.78236374    -0.82700
C699        C  0.41009139  0.25021447  0.79520045     1.12500
O700        O  0.48859722  0.29991093  0.66658658    -0.95800
Zr701      Zr  0.47260654  0.26483519  0.69958015     1.88900
O702        O  0.42153567  0.20924832  0.72099449    -0.72400
O703        O  0.43468518  0.31944931  0.76642637    -0.51700
O704        O  0.43999220  0.30542673  0.69556024    -0.96300
O705        O  0.47724944  0.24533577  0.65208184    -0.53600
O706        O  0.42676939  0.24555487  0.69062719    -0.72900
C707        C  0.41303033  0.22514486  0.70036479     0.99400
O708        O  0.44127149  0.17668141  0.78940697    -0.61700
O709        O  0.06528831  0.17801911  0.72084826    -0.56500
O710        O  0.47131248  0.16256485  0.74265405    -0.93200
O711        O  0.01287133  0.16911428  0.71167399    -0.91700
O712        O  0.05658851  0.18338046  0.79717971    -0.92000
O713        O  0.01132128  0.19226001  0.83004378    -0.90800
C714        C  0.49386205  0.14935284  0.73437252     1.18300
H715        H  0.06954844  0.23210802  0.75344219     0.34200
H716        H  0.46941896  0.23300716  0.81154535     0.45100
H717        H  0.47407370  0.20460899  0.69710247     0.38600
H718        H  0.49111143  0.31112088  0.73042097     0.35100
H719        H  0.04693861  0.23471605  0.85395427     0.26900
H720        H  0.43145709  0.33136099  0.78338616     0.32800
H721        H  0.42348112  0.30060638  0.70688194     0.38700
H722        H  0.07420752  0.18782866  0.78755964     0.33200
H723        H  0.07491261  0.17627718  0.70225913     0.32000
H724        H  0.03501690  0.18963438  0.66017372     0.33700
H725        H  0.47121800  0.22596310  0.65328052     0.32700
H726        H  0.49949414  0.18338012  0.82865711     0.36700
H727        H  0.45680806  0.16261435  0.79275165     0.29400
H728        H  0.07262778  0.33365072  0.73144697     0.33700
H729        H  0.47510166  0.30044386  0.65063503     0.36500
H730        H  0.07925213  0.18574373  0.73372584     0.29100
H731        H  0.43948791  0.18651585  0.80785105     0.42000
H732        H  0.46952488  0.27803709  0.84097412     0.32000
H733        H  0.03570520  0.26424973  0.84356741     0.39700
H734        H  0.49766202  0.24342125  0.64864617     0.31500
H735        H  0.44368714  0.33156623  0.75244997     0.31600
H736        H  0.04360041  0.33823925  0.71599443     0.31800
Zr737      Zr  0.21185210  0.46227033  0.50869892     2.17500
O738        O  0.17980613  0.44529043  0.54439249    -0.50500
O739        O  0.20831846  0.42507697  0.97246347    -0.73700
O740        O  0.16581484  0.47740580  0.99172983    -0.80500
O741        O  0.27432119  0.42196896  0.54052484    -0.82300
O742        O  0.16255483  0.01878652  0.96855900    -0.77900
O743        O  0.22722818  0.42029392  0.53495774    -0.89500
O744        O  0.24534378  0.42679743  0.94237055    -0.75500
O745        O  0.21908924  0.48503592  0.96251275    -0.85000
O746        O  0.25957738  0.45032676  0.99291877    -0.84700
O747        O  0.20251910  0.01061943  0.51498685    -0.71400
O748        O  0.24544183  0.47748784  0.54276979    -0.83600
Zr749      Zr  0.28503468  0.04024659  0.99250670     2.26400
Zr750      Zr  0.20966184  0.03381945  0.96986882     2.06300
Zr751      Zr  0.28984989  0.46596817  0.52162210     2.10000
Zr752      Zr  0.26549540  0.47226445  0.94830956     1.78800
O753        O  0.30961735  0.46316990  0.56924333    -0.92400
O754        O  0.23830906  0.47543785  0.90473301    -0.40200
O755        O  0.29584876  0.49033339  0.98353224    -0.76800
O756        O  0.25670976  0.02248101  0.95511047    -0.95500
O757        O  0.23903929  0.05151335  0.50687864    -0.88800
O758        O  0.27786327  0.01889186  0.54026537    -0.91600
C759        C  0.22402511  0.41481741  0.95246417     1.02100
C760        C  0.25115637  0.40984876  0.54324940     1.15100
C761        C  0.15435209  0.49838670  0.97835923     1.05800
O762        O  0.19786108  0.03397120  0.91952096    -0.93800
O763        O  0.22509618  0.07825126  0.95283967    -0.89500
O764        O  0.27100094  0.08168678  0.96415030    -0.82700
C765        C  0.24792714  0.09111880  0.95275622     1.12500
O766        O  0.19300320  0.01977534  0.58422888    -0.95800
Zr767      Zr  0.23026881  0.03044348  0.55124857     1.88900
O768        O  0.28936632  0.07801426  0.53001325    -0.72400
O769        O  0.17617592  0.07228087  0.98131238    -0.51700
O770        O  0.19199961  0.06601942  0.55176276    -0.96300
O771        O  0.24730547  0.02555036  0.59964599    -0.53600
O772        O  0.25266455  0.07411528  0.56019826    -0.72900
C773        C  0.27364049  0.08694341  0.55054687     0.99400
O774        O  0.32230172  0.05229790  0.95990378    -0.61700
O775        O  0.32193351  0.42834682  0.50485932    -0.56500
O776        O  0.33316777  0.02731151  0.51348430    -0.93200
O777        O  0.33694025  0.47936345  0.51374682    -0.91700
O778        O  0.30612191  0.44043616  0.94047372    -0.92000
O779        O  0.29450447  0.48587880  0.90862770    -0.90800
C780        C  0.34441044  0.00668643  0.52760954     1.18300
H781        H  0.26304844  0.43037388  0.99169560     0.34200
H782        H  0.26060755  0.03171966  0.93740072     0.45100
H783        H  0.29017714  0.02553619  0.55473879     0.38600
H784        H  0.18310987  0.01435753  0.52007623     0.35100
H785        H  0.22016904  0.46746209  0.90926350     0.26900
H786        H  0.16365506  0.07418345  0.96459804     0.32800
H787        H  0.19914780  0.08204796  0.54121098     0.38700
H788        H  0.30098980  0.42888005  0.92406150     0.33200
H789        H  0.32730732  0.41740347  0.52205703     0.32000
H790        H  0.32657180  0.45056736  0.56734039     0.33700
H791        H  0.26684128  0.03131536  0.59894484     0.32700
H792        H  0.30853479  0.99605173  0.91964828     0.36700
H793        H  0.33225241  0.03427385  0.95517191     0.29400
H794        H  0.16488779  0.43627079  0.53376747     0.33700
H795        H  0.19231297  0.03504966  0.59837867     0.36500
H796        H  0.31249801  0.41673120  0.00626526     0.29100
H797        H  0.31290837  0.05790319  0.94188886     0.42000
H798        H  0.21509226  0.03918809  0.90964423     0.32000
H799        H  0.23377627  0.49564120  0.90213572     0.39700
H800        H  0.24895769  0.00510943  0.60275355     0.31500
H801        H  0.16625658  0.06124373  0.49774833     0.31600
H802        H  0.17053867  0.46222928  0.55291194     0.31800
Zr803      Zr  0.28262530  0.03903853  0.75798495     2.17500
O804        O  0.31419961  0.05600218  0.79394385    -0.50500
O805        O  0.28845917  0.07704190  0.72336945    -0.73700
O806        O  0.33130263  0.02447276  0.74818624    -0.80500
O807        O  0.21952081  0.07928495  0.78915607    -0.82300
O808        O  0.34010228  0.47686489  0.71551157    -0.77900
O809        O  0.26655550  0.08141366  0.78339397    -0.89500
O810        O  0.25625257  0.07208446  0.68851515    -0.75500
O811        O  0.28179691  0.01444055  0.71402061    -0.85000
O812        O  0.23779925  0.05016389  0.73821416    -0.84700
O813        O  0.30320633  0.48686314  0.76330011    -0.71400
O814        O  0.24954668  0.02292392  0.79226874    -0.83600
Zr815      Zr  0.21673041  0.46360627  0.74507095     2.26400
Zr816      Zr  0.29182590  0.46505892  0.71926387     2.06300
Zr817      Zr  0.20493612  0.03420111  0.77146861     2.10000
Zr818      Zr  0.23712316  0.02622413  0.69423055     1.78800
O819        O  0.18782480  0.03494180  0.82015756    -0.92400
O820        O  0.26912243  0.02017589  0.65429116    -0.40200
O821        O  0.20302366  0.01015747  0.72691255    -0.76800
O822        O  0.24492177  0.47928044  0.70640250    -0.95500
O823        O  0.26338966  0.44891501  0.75676124    -0.88800
O824        O  0.22718855  0.48553074  0.78912422    -0.91600
C825        C  0.27491667  0.08588856  0.70114678     1.02100
C826        C  0.24252888  0.09185119  0.79149944     1.15100
C827        C  0.34461084  0.00234697  0.73895002     1.05800
O828        O  0.30002360  0.46263605  0.66825216    -0.93800
O829        O  0.27296791  0.42097160  0.70559127    -0.89500
O830        O  0.22701006  0.42040774  0.71792026    -0.82700
C831        C  0.24947120  0.40925852  0.70666158     1.12500
O832        O  0.30979522  0.47857749  0.83555115    -0.95800
Zr833      Zr  0.27382783  0.47051035  0.80029282     1.88900
O834        O  0.21155759  0.42638068  0.77972762    -0.72400
O835        O  0.32362300  0.42529699  0.73105893    -0.51700
O836        O  0.31034773  0.43313512  0.80054925    -0.96300
O837        O  0.25622003  0.47784136  0.84825335    -0.53600
O838        O  0.24834473  0.42875999  0.80994153    -0.72900
C839        C  0.22671576  0.41693990  0.80045907     0.99400
O840        O  0.17832878  0.45288161  0.71346087    -0.61700
O841        O  0.17167280  0.07140390  0.75605496    -0.56500
O842        O  0.17161714  0.47913263  0.76471377    -0.93200
O843        O  0.15797280  0.01971349  0.76395746    -0.91700
O844        O  0.19818332  0.05730215  0.67877800    -0.92000
O845        O  0.21085100  0.01110303  0.65328935    -0.90800
C846        C  0.16136935  0.50101157  0.77742299     1.18300
H847        H  0.23422298  0.07000674  0.73575459     0.34200
H848        H  0.23990631  0.47014807  0.68900482     0.45100
H849        H  0.21452785  0.48015976  0.80391811     0.38600
H850        H  0.32226454  0.48176895  0.76864645     0.35100
H851        H  0.28756243  0.02569884  0.66116976     0.26900
H852        H  0.33561728  0.42226685  0.71408352     0.32800
H853        H  0.30111550  0.41641246  0.79372475     0.38700
H854        H  0.19293494  0.06842602  0.69583425     0.33200
H855        H  0.16477332  0.08042431  0.77380704     0.32000
H856        H  0.16984202  0.04608982  0.81929053     0.33700
H857        H  0.23860200  0.46795580  0.84894105     0.32700
H858        H  0.19541784  0.50164127  0.67473720     0.36700
H859        H  0.16722822  0.47073966  0.71103339     0.29400
H860        H  0.32830515  0.06630143  0.78337297     0.33700
H861        H  0.31002843  0.46220083  0.84843655     0.36500
H862        H  0.18309313  0.08548202  0.74684044     0.29100
H863        H  0.18705847  0.44957234  0.69460830     0.42000
H864        H  0.31093924  0.47908880  0.66388669     0.32000
H865        H  0.27138673  0.99972475  0.65159425     0.39700
H866        H  0.25019454  0.49789143  0.84886811     0.31500
H867        H  0.33626532  0.43205376  0.74588994     0.31600
H868        H  0.32454647  0.03914454  0.80146020     0.31800
O869        O  0.32399033  0.25319338  0.57278465    -0.74500
O870        O  0.32761476  0.21021667  0.59412618    -0.53400
C871        C  0.33688867  0.22931207  0.57793401     0.79200
O872        O  0.25326141  0.32445207  0.67745612    -0.59100
O873        O  0.21189135  0.33177312  0.65399032    -0.52100
C874        C  0.23098324  0.33950119  0.67112756     0.71300
O875        O  0.32480183  0.26078843  0.66962437    -0.73600
O876        O  0.33080624  0.21583464  0.65404865    -0.54200
C877        C  0.33988830  0.23814099  0.66548467     0.77300
O878        O  0.25699775  0.32429113  0.57124957    -0.58800
O879        O  0.21412197  0.33103270  0.59229210    -0.51900
C880        C  0.23410834  0.33892338  0.57634804     0.73900
Zr881      Zr  0.27893384  0.27826385  0.58327071     2.54700
O882        O  0.31508663  0.31209424  0.58249737    -0.79400
O883        O  0.27643378  0.27638555  0.53173029    -0.92800
Zr884      Zr  0.27592127  0.27823345  0.66763618     2.64700
O885        O  0.30914668  0.31221044  0.68246759    -0.97700
O886        O  0.27186264  0.26881756  0.71819731    -0.79800
O887        O  0.29653175  0.25833461  0.62612403    -0.83100
O888        O  0.25858280  0.29867136  0.62484462    -2.17900
O889        O  0.17551908  0.24561163  0.57010204    -0.66500
O890        O  0.16906895  0.28784690  0.59195693    -0.51100
C891        C  0.16095419  0.26831848  0.57558629     0.72200
O892        O  0.23710181  0.17465823  0.67178902    -0.59400
O893        O  0.28225126  0.16843014  0.65649546    -0.51400
C894        C  0.26005336  0.15974294  0.66856283     0.74000
O895        O  0.17290503  0.24596633  0.67495758    -0.70800
O896        O  0.16819031  0.28847648  0.65297877    -0.49500
C897        C  0.15914724  0.26904425  0.66887902     0.75400
O898        O  0.23814360  0.17494566  0.57882191    -0.66200
O899        O  0.28193463  0.16769433  0.59747849    -0.53400
C900        C  0.26022708  0.15948597  0.58425727     0.73800
Zr901      Zr  0.22153115  0.22360250  0.58117670     2.77500
O902        O  0.18976319  0.18949849  0.56361185    -0.96900
O903        O  0.23412049  0.22996414  0.53159545    -0.77700
Zr904      Zr  0.21869909  0.22282571  0.66564417     2.70100
O905        O  0.18131368  0.19071501  0.67087916    -0.79000
O906        O  0.22294450  0.22431157  0.71703585    -0.98100
Zr907      Zr  0.28785604  0.20968234  0.62620034     2.21500
Zr908      Zr  0.20959760  0.29087693  0.62330815     2.11100
O909        O  0.20023576  0.24237802  0.62286174    -2.46800
O910        O  0.23886522  0.20322128  0.62400427    -0.78800
O911        O  0.23013100  0.27173171  0.58079105    -0.71000
O912        O  0.26752860  0.22967546  0.66873184    -2.31900
O913        O  0.27024768  0.22986548  0.58247230    -2.28100
O914        O  0.22724426  0.27116150  0.66692886    -0.72700
H915        H  0.26188240  0.31835578  0.62490898     0.79300
H916        H  0.27563563  0.22075196  0.68546733     0.80400
H917        H  0.18043233  0.23954559  0.62232647     0.82600
H918        H  0.27921398  0.22080953  0.56628398     0.80200
H919        H  0.28956257  0.25829907  0.72310876     0.43200
H920        H  0.21929438  0.24429395  0.72167664     0.42200
H921        H  0.17328846  0.18942041  0.65156539     0.41900
H922        H  0.17304083  0.19143580  0.57598971     0.39800
H923        H  0.24472051  0.21243471  0.52637322     0.42900
H924        H  0.28697197  0.29247474  0.52533858     0.37700
H925        H  0.31346249  0.32147292  0.60119252     0.43800
H926        H  0.30619869  0.32828875  0.66935994     0.40300
H927        H  0.18339445  0.19659223  0.54480093     0.45200
H928        H  0.25668851  0.28185782  0.52722945     0.43900
H929        H  0.30240238  0.31915739  0.70118233     0.44000
H930        H  0.20619112  0.21517028  0.72405552     0.44400
O931        O  0.32456407  0.25877190  0.82295226    -0.74500
O932        O  0.32829489  0.21421217  0.84019883    -0.53400
C933        C  0.33780451  0.23490457  0.82636812     0.79200
O934        O  0.25867152  0.32300602  0.92881157    -0.59100
O935        O  0.21609981  0.33306387  0.90831985    -0.52100
C936        C  0.23708957  0.33942293  0.92389052     0.71300
O937        O  0.32495389  0.25486458  0.92327650    -0.73600
O938        O  0.33026547  0.21305098  0.90032255    -0.54200
C939        C  0.33926264  0.23243035  0.91634176     0.77300
O940        O  0.25954406  0.32822539  0.82719856    -0.58800
O941        O  0.21700788  0.33613672  0.84872392    -0.51900
C942        C  0.23799659  0.34396738  0.83393373     0.73900
Zr943      Zr  0.27827699  0.28041255  0.83302266     2.54700
O944        O  0.31504981  0.31303501  0.82682669    -0.79400
O945        O  0.27200810  0.27787486  0.78185524    -0.92800
Zr946      Zr  0.27811101  0.27630189  0.91732211     2.64700
O947        O  0.31506943  0.30815920  0.92656166    -0.97700
O948        O  0.27290848  0.26763841  0.96794254    -0.79800
O949        O  0.29742081  0.25865350  0.87420498    -0.83100
O950        O  0.25980207  0.29875870  0.87624055    -2.17900
O951        O  0.17612661  0.25304747  0.81928285    -0.66500
O952        O  0.17103984  0.29436347  0.84335667    -0.51100
C953        C  0.16254201  0.27616250  0.82571560     0.72200
O954        O  0.24209803  0.17533706  0.92263575    -0.59400
O955        O  0.28505402  0.16952811  0.90176327    -0.51400
C956        C  0.26509479  0.16102588  0.91739283     0.74000
O957        O  0.17361030  0.24212025  0.92241540    -0.70800
O958        O  0.16769460  0.28657443  0.90485414    -0.49500
C959        C  0.15890153  0.26490941  0.91799123     0.75400
O960        O  0.23823181  0.17859884  0.81961959    -0.66200
O961        O  0.28089594  0.17040864  0.84070046    -0.53400
C962        C  0.26043122  0.16298900  0.82506329     0.73800
Zr963      Zr  0.22017190  0.22654918  0.82988651     2.77500
O964        O  0.18280309  0.19450800  0.82369913    -0.96900
O965        O  0.22663661  0.23211658  0.77905375    -0.77700
Zr966      Zr  0.22045822  0.22197173  0.91392638     2.70100
O967        O  0.18632611  0.18624876  0.91726904    -0.79000
O968        O  0.22293058  0.22492436  0.96545085    -0.98100
Zr969      Zr  0.28798290  0.21053394  0.87144007     2.21500
Zr970      Zr  0.21039299  0.29314236  0.87620562     2.11100
O971        O  0.20122638  0.24448594  0.87285545    -2.46800
O972        O  0.23904740  0.20381453  0.87086326    -0.78800
O973        O  0.22931765  0.27482144  0.83225354    -0.71000
O974        O  0.26920370  0.22823992  0.91538205    -2.31900
O975        O  0.26906813  0.23247605  0.82939602    -2.28100
O976        O  0.22914497  0.27028187  0.91803631    -0.72700
H977        H  0.26413798  0.31812099  0.87743519     0.79300
H978        H  0.27781812  0.21851491  0.93142740     0.80400
H979        H  0.18140791  0.24189141  0.87184183     0.82600
H980        H  0.27750937  0.22432757  0.81245737     0.80200
H981        H  0.29194144  0.26148359  0.97436973     0.43200
H982        H  0.20869435  0.21224263  0.97228204     0.42200
H983        H  0.17954764  0.18415529  0.89755192     0.41900
H984        H  0.16823315  0.20065519  0.83761612     0.39800
H985        H  0.21850648  0.25111379  0.77495032     0.42900
H986        H  0.29121175  0.27853851  0.77415967     0.37700
H987        H  0.32327523  0.31468029  0.84601691     0.43800
H988        H  0.31220759  0.32329461  0.91232869     0.40100
H989        H  0.17454110  0.19923752  0.80490537     0.45200
H990        H  0.26280822  0.29612328  0.77655065     0.43900
H991        H  0.31034797  0.31701497  0.94504647     0.44000
H992        H  0.24104096  0.21523065  0.97046044     0.44400
C993        C  0.28008347  0.11441944  0.69002925    -0.15600
C994        C  0.25894812  0.13023683  0.67823213    -0.30800
H995        H  0.30016595  0.12329081  0.69371891     0.13400
H996        H  0.23837944  0.12166890  0.67740196     0.14000
C997        C  0.22758584  0.36793080  0.68404638    -0.15600
C998        C  0.24980135  0.38052128  0.69484639    -0.30800
H999        H  0.20728975  0.37915554  0.68320763     0.13400
H1000       H  0.27026745  0.36963624  0.69367257     0.14000
C1001       C  0.24054303  0.12058689  0.80375983    -0.15600
C1002       C  0.26288788  0.13433218  0.81262483    -0.30800
H1003       H  0.21976012  0.13061800  0.80594496     0.13400
H1004       H  0.28353295  0.12379983  0.81191253     0.14000
C1005       C  0.21972160  0.38978522  0.81334135    -0.15600
C1006       C  0.24005204  0.37348984  0.82555250    -0.30800
H1007       H  0.19920674  0.38176573  0.80983484     0.13400
H1008       H  0.26106344  0.38103390  0.82634959     0.14000
C1009       C  0.24640079  0.11904711  0.93916702    -0.15600
C1010       C  0.26869658  0.13278072  0.93038523    -0.30800
H1011       H  0.22553962  0.12851670  0.93568141     0.13400
H1012       H  0.28959115  0.12291506  0.93204310     0.14000
C1013       C  0.23909233  0.36800833  0.93567574    -0.15600
C1014       C  0.21787075  0.38686104  0.94086993    -0.30800
H1015       H  0.26014903  0.37378674  0.94093834     0.13400
H1016       H  0.19634782  0.38123090  0.93829503     0.14000
C1017       C  0.25861143  0.13002436  0.57559599    -0.15600
C1018       C  0.27937095  0.11449822  0.56315772    -0.30800
H1019       H  0.23788511  0.12182304  0.57656609     0.13400
H1020       H  0.29952308  0.12330603  0.55955900     0.14000
C1021       C  0.25301858  0.38162271  0.55624152    -0.15600
C1022       C  0.23068610  0.36714353  0.56340828    -0.30800
H1023       H  0.27389098  0.37240441  0.56022179     0.13400
H1024       H  0.20969884  0.37663688  0.56102092     0.14000
C1025       C  0.13071278  0.27317650  0.68086426    -0.15600
C1026       C  0.11451363  0.25132293  0.68401859    -0.30800
H1027       H  0.12291452  0.29408782  0.68660912     0.13400
H1028       H  0.12210894  0.23094423  0.67628995     0.14000
C1029       C  0.36985706  0.23972008  0.67362199    -0.15600
C1030       C  0.38508460  0.21973636  0.68776443    -0.30800
H1031       H  0.37863745  0.26000500  0.67096297     0.13400
H1032       H  0.37567194  0.20019412  0.69277420     0.14000
C1033       C  0.11910793  0.25949453  0.80663290    -0.15600
C1034       C  0.13449066  0.28132924  0.81273132    -0.30800
H1035       H  0.12765868  0.23855927  0.81149942     0.13400
H1036       H  0.12554326  0.30252188  0.81062415     0.14000
C1037       C  0.38187234  0.25287768  0.80818873    -0.15600
C1038       C  0.36603950  0.23101617  0.81350303    -0.30800
H1039       H  0.37404322  0.27375154  0.81411789     0.13400
H1040       H  0.37433444  0.20989712  0.80933940     0.14000
C1041       C  0.11336551  0.28481708  0.93839352    -0.15600
C1042       C  0.12941715  0.26370671  0.92738246    -0.30800
H1043       H  0.12172664  0.30531105  0.94067957     0.13400
H1044       H  0.12137103  0.24291584  0.92774477     0.14000
C1045       C  0.36809032  0.22900931  0.92790604    -0.15600
C1046       C  0.38199168  0.25150943  0.93573652    -0.30800
H1047       H  0.37793342  0.20816492  0.92988198     0.13400
H1048       H  0.37244142  0.27225753  0.93191972     0.14000
C1049       C  0.11910967  0.24942523  0.55335289    -0.15600
C1050       C  0.13261544  0.27173545  0.56259804    -0.30800
H1051       H  0.12915148  0.22869140  0.55574283     0.13400
H1052       H  0.12224743  0.29242921  0.56187682     0.14000
C1053       C  0.38234091  0.24426000  0.56187741    -0.15600
C1054       C  0.36471603  0.22358643  0.56463430    -0.30800
H1055       H  0.37575284  0.26480153  0.56997212     0.13400
H1056       H  0.37139108  0.20233778  0.55891561     0.14000
C1057       C  0.10678659  0.50277674  0.78369188    -0.12500
C1058       C  0.13191508  0.50238042  0.78267668    -0.14000
C1059       C  0.37437607  0.00110437  0.74076280    -0.12500
C1060       C  0.39913171  0.99891261  0.74502473    -0.14000
C1061       C  0.01287093  0.39808314  0.78628734    -0.12500
C1062       C  0.01376114  0.37298029  0.78692503    -0.14000
C1063       C  0.49767268  0.09518225  0.74100526    -0.12500
C1064       C  0.49519691  0.11975395  0.73630309    -0.14000
C1065       C  0.12486575  0.49982337  0.97523469    -0.12500
C1066       C  0.09992208  0.50313686  0.97483830    -0.14000
C1067       C  0.39868407  0.00258239  0.53339127    -0.12500
C1068       C  0.37375641  0.00581866  0.53203299    -0.14000
C1069       C  0.00631229  0.40491919  0.96860433    -0.12500
C1070       C  0.00832079  0.37992598  0.96863754    -0.14000
C1071       C  0.48989887  0.12589917  0.53513561    -0.12500
C1072       C  0.49327035  0.10087503  0.53382173    -0.14000
N1073       N  0.47273916  0.52848667  0.01047432    -0.35800
N1074       N  0.02563226  0.53363735  0.51734463    -0.56400
N1075       N  0.02663674  0.97551288  0.99058199    -0.35800
N1076       N  0.46866356  0.97055971  0.99979501    -0.56400
C1077       C  0.47637399  0.55265500  0.48972571     0.27800
C1078       C  0.44500918  0.52511128  0.00892728     0.27800
C1079       C  0.05634875  0.97121641  0.47644542     0.27800
C1080       C  0.02079900  0.94973854  0.98154290     0.27800
C1081       C  0.02198985  0.55930011  0.52893052     0.36400
C1082       C  0.05347300  0.52826664  0.51493559     0.36400
C1083       C  0.44302147  0.97404996  0.01154242     0.36400
C1084       C  0.47486502  0.94279702  0.99905176     0.36400
C1085       C  0.45058960  0.56714249  0.48788950    -0.21100
C1086       C  0.43050421  0.55094542  0.00882014    -0.21100
C1087       C  0.07056884  0.94536486  0.47913811    -0.21100
C1088       C  0.04127231  0.93982332  0.96274086    -0.21100
C1089       C  0.04764918  0.57053254  0.53367436    -0.22100
C1090       C  0.06767195  0.55078279  0.52486127    -0.22100
C1091       C  0.43258164  0.94835742  0.01790790    -0.22100
C1092       C  0.45289802  0.92847658  0.01010680    -0.22100
C1093       C  0.50210487  0.56514192  0.49269675    -0.17500
C1094       C  0.43243453  0.49936687  0.00974607    -0.17500
C1095       C  0.49919241  0.93044583  0.98650616    -0.17500
C1096       C  0.06599246  0.50422041  0.50197576    -0.17500
H1097       H  0.44647182  0.58954623  0.48714935     0.15400
H1098       H  0.40807889  0.55519011  0.00817337     0.15400
H1099       H  0.09295923  0.94098742  0.48016196     0.15400
H1100       H  0.04270052  0.91975469  0.95221493     0.15400
H1101       H  0.05148645  0.59096466  0.54209291     0.13700
H1102       H  0.09006178  0.55295785  0.52521741     0.13700
H1103       H  0.41239568  0.94439043  0.02699689     0.13700
H1104       H  0.45145781  0.90609053  0.01186406     0.13700
H1105       H  0.48816187  0.51291145  0.01448313     0.27000
H1106       H  0.01721019  0.98621476  0.00752102     0.27000
N1107       N  0.46361103  0.52800496  0.23724548    -0.35800
N1108       N  0.02397855  0.52603471  0.26016226    -0.56400
N1109       N  0.03628303  0.97106482  0.27213876    -0.35800
N1110       N  0.47881339  0.96432051  0.25714966    -0.56400
C1111       C  0.46720452  0.55576094  0.23659387     0.27800
C1112       C  0.43576017  0.52470893  0.23759655     0.27800
C1113       C  0.06382184  0.97609380  0.27133150     0.27800
C1114       C  0.03435257  0.94303514  0.27340931     0.27800
C1115       C  0.02113160  0.55210264  0.24937309     0.36400
C1116       C  0.05164598  0.52049302  0.26391655     0.36400
C1117       C  0.45365923  0.96651921  0.24409580     0.36400
C1118       C  0.48582015  0.93675438  0.25942440     0.36400
C1119       C  0.44137985  0.57029112  0.23640652    -0.21100
C1120       C  0.42152385  0.55070451  0.23712200    -0.21100
C1121       C  0.07957272  0.95099966  0.27293788    -0.21100
C1122       C  0.06098230  0.93014660  0.27421824    -0.21100
C1123       C  0.04705969  0.56344573  0.24675742    -0.22100
C1124       C  0.06645902  0.54333250  0.25589187    -0.22100
C1125       C  0.44436151  0.94024132  0.23844472    -0.22100
C1126       C  0.46477895  0.92134889  0.24810030    -0.22100
C1127       C  0.49308280  0.56823828  0.23425765    -0.17500
C1128       C  0.42286332  0.49899894  0.23589649    -0.17500
C1129       C  0.51021331  0.92530513  0.27287431    -0.17500
C1130       C  0.06352022  0.49571101  0.27594835    -0.17500
H1131       H  0.43724113  0.59268387  0.23546268     0.15400
H1132       H  0.39912324  0.55515538  0.23674194     0.15400
H1133       H  0.10213994  0.94797470  0.27308555     0.15400
H1134       H  0.06648962  0.90799978  0.27558284     0.15400
H1135       H  0.05149685  0.58412162  0.23930279     0.13700
H1136       H  0.08883841  0.54544674  0.25689013     0.13700
H1137       H  0.42484010  0.93523105  0.22857540     0.13700
H1138       H  0.46410838  0.89884980  0.24706425     0.13700
H1139       H  0.47907465  0.51236104  0.23393925     0.27000
H1140       H  0.01988139  0.98596621  0.27427354     0.27000
Zr1141     Zr  0.46148134  0.71057739  0.49004639     2.17500
O1142       O  0.44188023  0.67812071  0.45650990    -0.50500
O1143       O  0.42334001  0.70739634  0.02572202    -0.73700
O1144       O  0.47549724  0.66393266  0.00650574    -0.80500
O1145       O  0.42230319  0.77279008  0.45703467    -0.82300
O1146       O  0.01701065  0.66711079  0.02721013    -0.77900
O1147       O  0.42010047  0.72581073  0.46279990    -0.89500
O1148       O  0.42627995  0.74417854  0.05568360    -0.75500
O1149       O  0.48348434  0.71692344  0.03593787    -0.85000
O1150       O  0.45006636  0.75798099  0.00524941    -0.84700
O1151       O  0.00755922  0.70073712  0.49367085    -0.71400
O1152       O  0.47662537  0.74304189  0.45477749    -0.83600
Zr1153     Zr  0.04070570  0.78862480  0.00280315     2.26400
Zr1154     Zr  0.03370357  0.71346327  0.02393337     2.06300
Zr1155     Zr  0.46686884  0.78817699  0.47499177     2.10000
Zr1156     Zr  0.47187025  0.76346268  0.05006014     1.78800
O1157       O  0.46349645  0.80817425  0.42744860    -0.92400
O1158       O  0.47511670  0.73720975  0.09432877    -0.40200
O1159       O  0.49070677  0.79311745  0.01475053    -0.76800
O1160       O  0.02320355  0.76001742  0.04034063    -0.95500
O1161       O  0.05146020  0.73444274  0.49546142    -0.88800
O1162       O  0.02236952  0.76984312  0.45523659    -0.91600
C1163       C  0.41354921  0.72346044  0.04563200     1.02100
C1164       C  0.40994845  0.74975132  0.45432095     1.15100
C1165       C  0.49588039  0.65218302  0.02062185     1.05800
O1166       O  0.03937596  0.70013500  0.07360819    -0.93800
O1167       O  0.07903539  0.72777409  0.03981359    -0.89500
O1168       O  0.08089619  0.77453154  0.03295964    -0.82700
C1169       C  0.09124748  0.75085073  0.04201680     1.12500
O1170       O  0.01330575  0.68267271  0.42383292    -0.95800
Zr1171     Zr  0.02945590  0.72026943  0.45329993     1.88900
O1172       O  0.08120761  0.77729618  0.46319927    -0.72400
O1173       O  0.07007038  0.68007799  0.00689193    -0.51700
O1174       O  0.05849875  0.67740267  0.45970306    -0.96300
O1175       O  0.03260680  0.72959204  0.40261326    -0.53600
O1176       O  0.07695660  0.73369909  0.44562662    -0.72900
C1177       C  0.09053847  0.75570839  0.44932364     0.99400
O1178       O  0.05888693  0.82778942  0.02875793    -0.61700
O1179       O  0.43011244  0.82028646  0.49358981    -0.56500
O1180       O  0.02752466  0.83107313  0.48466140    -0.93200
O1181       O  0.48106676  0.83505722  0.48291344    -0.91700
O1182       O  0.44023445  0.80404665  0.05832126    -0.92000
O1183       O  0.48388906  0.79388565  0.08904487    -0.90800
C1184       C  0.00528959  0.84260497  0.47343715     1.18300
H1185       H  0.43009920  0.76193414  0.00633295     0.34200
H1186       H  0.03303417  0.76325788  0.05783032     0.45100
H1187       H  0.03016420  0.77916476  0.43909790     0.38600
H1188       H  0.01015614  0.68082307  0.49106764     0.35100
H1189       H  0.45631518  0.74011644  0.10293996     0.26900
H1190       H  0.07470908  0.66792202  0.02344448     0.32800
H1191       H  0.07528952  0.68313985  0.46999405     0.38700
H1192       H  0.43948027  0.81409320  0.03992091     0.33200
H1193       H  0.42120156  0.82910859  0.47659178     0.32000
H1194       H  0.44767781  0.82229198  0.42854112     0.33700
H1195       H  0.04707001  0.71577338  0.39554721     0.32700
H1196       H  0.99706574  0.81467338  0.07389920     0.36700
H1197       H  0.05695718  0.82299484  0.04911516     0.29400
H1198       H  0.43203285  0.66449000  0.46816839     0.33700
H1199       H  0.99747175  0.67533203  0.43456847     0.36500
H1200       H  0.41622552  0.81048396  0.98922170     0.29100
H1201       H  0.07930200  0.82705852  0.02514266     0.42000
H1202       H  0.03394791  0.71726028  0.08441102     0.32000
H1203       H  0.47627539  0.71724016  0.08899054     0.39700
H1204       H  0.04164350  0.74763039  0.40126244     0.31500
H1205       H  0.06072597  0.66447314  0.52113564     0.31600
H1206       H  0.45808657  0.66736826  0.44814918     0.31800
Zr1207     Zr  0.04254563  0.78358973  0.24858970     2.17500
O1208       O  0.06027231  0.81802598  0.21588333    -0.50500
O1209       O  0.08035799  0.78395490  0.28388840    -0.73700
O1210       O  0.03177739  0.83089586  0.26539115    -0.80500
O1211       O  0.08014596  0.72274416  0.21122268    -0.82300
O1212       O  0.49055340  0.82979933  0.28480214    -0.77900
O1213       O  0.08367382  0.76900246  0.22029348    -0.89500
O1214       O  0.06907337  0.75590508  0.32073786    -0.75500
O1215       O  0.01701613  0.77993995  0.29185180    -0.85000
O1216       O  0.05189655  0.73725472  0.26513963    -0.84700
O1217       O  0.49489079  0.79314683  0.23817602    -0.71400
O1218       O  0.02560780  0.75424156  0.21167828    -0.83600
Zr1219     Zr  0.45996750  0.71138589  0.25309288     2.26400
Zr1220     Zr  0.47172899  0.78389722  0.28206196     2.06300
Zr1221     Zr  0.03516800  0.70792642  0.22888130     2.10000
Zr1222     Zr  0.02643156  0.73359829  0.30821203     1.78800
O1223       O  0.03868723  0.69304904  0.17954087    -0.92400
O1224       O  0.01555019  0.75779117  0.35250856    -0.40200
O1225       O  0.00996170  0.70309927  0.27245789    -0.76800
O1226       O  0.47902904  0.73524969  0.29283508    -0.95500
O1227       O  0.45156987  0.75973229  0.24353375    -0.88800
O1228       O  0.48309465  0.71999927  0.20921274    -0.91600
C1229       C  0.08537962  0.77240596  0.30823805     1.02100
C1230       C  0.09317447  0.74551106  0.21002666     1.15100
C1231       C  0.01019299  0.84437099  0.27561793     1.05800
O1232       O  0.47169822  0.79223317  0.33309982    -0.93800
O1233       O  0.42585748  0.77016804  0.29726011    -0.89500
O1234       O  0.41871553  0.72645814  0.28092221    -0.82700
C1235       C  0.41103177  0.74876943  0.29459200     1.12500
O1236       O  0.48736846  0.80693149  0.16969142    -0.95800
Zr1237     Zr  0.47439132  0.76836096  0.20002531     1.88900
O1238       O  0.42360846  0.71087923  0.21702314    -0.72400
O1239       O  0.43531924  0.82026460  0.27279248    -0.51700
O1240       O  0.44028088  0.80792947  0.19897787    -0.96300
O1241       O  0.48227679  0.75335471  0.15132090    -0.53600
O1242       O  0.42992038  0.74798238  0.18798960    -0.72900
C1243       C  0.41605607  0.72715861  0.19642583     0.99400
O1244       O  0.44294157  0.67427629  0.28327058    -0.61700
O1245       O  0.07121563  0.67358619  0.24478079    -0.56500
O1246       O  0.47147437  0.66462112  0.23586319    -0.93200
O1247       O  0.01800895  0.66149680  0.23142037    -0.91700
O1248       O  0.05967721  0.69449053  0.31779458    -0.92000
O1249       O  0.01207366  0.70107973  0.34451631    -0.90800
C1250       C  0.49284121  0.65170441  0.22466343     1.18300
H1251       H  0.07163403  0.73315828  0.26803678     0.34200
H1252       H  0.46906132  0.73077527  0.30996897     0.45100
H1253       H  0.47607649  0.70858835  0.19420922     0.38600
H1254       H  0.49244361  0.81270165  0.23331117     0.35100
H1255       H  0.02166877  0.77699940  0.34970256     0.26900
H1256       H  0.43564662  0.83297404  0.28932309     0.32800
H1257       H  0.42468090  0.80223997  0.21114174     0.38700
H1258       H  0.07727145  0.69947528  0.30845889     0.33200
H1259       H  0.07997008  0.66616121  0.22709476     0.32000
H1260       H  0.04978610  0.67504497  0.18019011     0.33700
H1261       H  0.47691768  0.73371970  0.15102700     0.32700
H1262       H  0.49355489  0.68532295  0.32721538     0.36700
H1263       H  0.45932067  0.66123268  0.28673094     0.29400
H1264       H  0.07126126  0.83054270  0.22767946     0.33700
H1265       H  0.47346296  0.80794923  0.15409615     0.36500
H1266       H  0.08580741  0.68453665  0.25369448     0.29100
H1267       H  0.43938505  0.68286457  0.30212456     0.42000
H1268       H  0.46555938  0.81216547  0.33517711     0.32000
H1269       H  0.99488678  0.75983860  0.35309545     0.39700
H1270       H  0.50286985  0.75220553  0.14906115     0.31500
H1271       H  0.44238984  0.83122804  0.25670830     0.31600
H1272       H  0.04360461  0.82962347  0.20979014     0.31800
Zr1273     Zr  0.20910569  0.96243831  0.00654685     2.17500
O1274       O  0.17499461  0.94621399  0.04044374    -0.50500
O1275       O  0.20941191  0.92345728  0.47335892    -0.73700
O1276       O  0.16522879  0.97343229  0.48926645    -0.80500
O1277       O  0.26779907  0.92471364  0.04669596    -0.82300
O1278       O  0.16169939  0.52185026  0.48207402    -0.77900
O1279       O  0.22227547  0.92050637  0.03433058    -0.89500
O1280       O  0.24590331  0.92757541  0.44300204    -0.75500
O1281       O  0.22018739  0.98262950  0.46335594    -0.85000
O1282       O  0.25931274  0.95004554  0.49667354    -0.84700
O1283       O  0.20596549  0.51227828  0.01597560    -0.71400
O1284       O  0.23729932  0.98061030  0.04398154    -0.83600
Zr1285     Zr  0.28691900  0.53930473  0.48835049     2.26400
Zr1286     Zr  0.20907999  0.53576359  0.47590867     2.06300
Zr1287     Zr  0.28429051  0.96902306  0.02995796     2.10000
Zr1288     Zr  0.26781312  0.97140583  0.45234509     1.78800
O1289       O  0.29382494  0.96925013  0.08078152    -0.92400
O1290       O  0.24798356  0.97701146  0.40508864    -0.40200
O1291       O  0.29525701  0.99083538  0.48915612    -0.76800
O1292       O  0.25340138  0.52400550  0.45420335    -0.95500
O1293       O  0.24303089  0.55183603  0.00655792    -0.88800
O1294       O  0.28339646  0.51750506  0.03645721    -0.91600
C1295       C  0.22499703  0.91466456  0.45267318     1.02100
C1296       C  0.24526263  0.91134640  0.04607908     1.15100
C1297       C  0.15377643  0.99366491  0.47475867     1.05800
O1298       O  0.18837425  0.53981491  0.42876648    -0.93800
O1299       O  0.22426008  0.58003843  0.45728808    -0.89500
O1300       O  0.27142768  0.58149547  0.46193113    -0.82700
C1301       C  0.24739493  0.59212532  0.45408073     1.12500
O1302       O  0.20453548  0.51590066  0.08774053    -0.95800
Zr1303     Zr  0.23689087  0.52980918  0.05095567     1.88900
O1304       O  0.29439605  0.57765251  0.02623614    -0.72400
O1305       O  0.17981180  0.57511365  0.49363152    -0.51700
O1306       O  0.19876408  0.56498932  0.05726456    -0.96300
O1307       O  0.26043262  0.52432052  0.09655494    -0.53600
O1308       O  0.25857618  0.57417591  0.05752926    -0.72900
C1309       C  0.27912670  0.58702824  0.04702859     0.99400
O1310       O  0.32303269  0.55370355  0.45567979    -0.61700
O1311       O  0.32033690  0.93205847  0.02189130    -0.56500
O1312       O  0.33660480  0.52526468  0.00532865    -0.93200
O1313       O  0.33164209  0.98347277  0.02869076    -0.91700
O1314       O  0.30761679  0.93764606  0.44963887    -0.92000
O1315       O  0.30317173  0.98231469  0.41739756    -0.90800
C1316       C  0.34850620  0.50354739  0.01697449     1.18300
H1317       H  0.26331848  0.93014172  0.49550443     0.34200
H1318       H  0.25499873  0.53415740  0.43657603     0.45100
H1319       H  0.29695654  0.52345928  0.05003711     0.38600
H1320       H  0.18705430  0.51658621  0.02238199     0.35100
H1321       H  0.22807702  0.97273347  0.40718103     0.26900
H1322       H  0.16310655  0.57623496  0.48119939     0.32800
H1323       H  0.20337796  0.58055267  0.04452177     0.38700
H1324       H  0.30089636  0.92019995  0.45785983     0.33200
H1325       H  0.32439627  0.92395089  0.04091317     0.32000
H1326       H  0.31350083  0.96199779  0.08252800     0.33700
H1327       H  0.27794619  0.53428999  0.09495893     0.32700
H1328       H  0.28635174  0.50742689  0.40454430     0.36700
H1329       H  0.31423187  0.55385816  0.43663772     0.29400
H1330       H  0.16131867  0.93627825  0.02899251     0.33700
H1331       H  0.20239178  0.53198712  0.10083749     0.36500
H1332       H  0.31388991  0.92005797  0.51249148     0.29100
H1333       H  0.32571121  0.57356779  0.46006424     0.42000
H1334       H  0.17346128  0.55481688  0.43060359     0.32000
H1335       H  0.24754988  0.99737451  0.40151242     0.39700
H1336       H  0.26651673  0.50431656  0.09764948     0.31500
H1337       H  0.16948241  0.56557523  0.99951320     0.31600
H1338       H  0.16461535  0.96334060  0.04718695     0.31800
Zr1339     Zr  0.27864577  0.54222543  0.25135353     2.17500
O1340       O  0.31443385  0.56338760  0.27986955    -0.50500
O1341       O  0.27602871  0.58039968  0.21577115    -0.73700
O1342       O  0.32637765  0.52863794  0.23591931    -0.80500
O1343       O  0.22173894  0.57708892  0.29772415    -0.82300
O1344       O  0.34107871  0.97680120  0.21884088    -0.77900
O1345       O  0.26611652  0.58236628  0.28198987    -0.89500
O1346       O  0.23639400  0.57470685  0.19024879    -0.75500
O1347       O  0.26931937  0.51957189  0.20732760    -0.85000
O1348       O  0.23018505  0.55130006  0.24206975    -0.84700
O1349       O  0.30253621  0.98786275  0.26331813    -0.71400
O1350       O  0.25411791  0.52318579  0.29128641    -0.83600
Zr1351     Zr  0.21669842  0.96481910  0.24218577     2.26400
Zr1352     Zr  0.29241662  0.96623486  0.21870363     2.06300
Zr1353     Zr  0.20566209  0.53259618  0.28092155     2.10000
Zr1354     Zr  0.22058373  0.52847984  0.19872780     1.78800
O1355       O  0.19554032  0.53181964  0.33158547    -0.92400
O1356       O  0.23978798  0.52838576  0.15101863    -0.40200
O1357       O  0.19504747  0.50983357  0.23732435    -0.76800
O1358       O  0.24592273  0.98059212  0.20445214    -0.95500
O1359       O  0.26300140  0.95022803  0.25534785    -0.88800
O1360       O  0.22560879  0.98660632  0.28681263    -0.91600
C1361       C  0.25703600  0.58888884  0.19780001     1.02100
C1362       C  0.24396152  0.59087490  0.29566986     1.15100
C1363       C  0.33858244  0.50634478  0.22563003     1.05800
O1364       O  0.30388675  0.96601552  0.16828519    -0.93800
O1365       O  0.27346712  0.92248069  0.20379954    -0.89500
O1366       O  0.22743688  0.92140323  0.21550775    -0.82700
C1367       C  0.25010480  0.91049794  0.20445622     1.12500
O1368       O  0.30472929  0.98171850  0.33723535    -0.95800
Zr1369     Zr  0.27203090  0.97168471  0.29933229     1.88900
O1370       O  0.21122259  0.92695194  0.27614532    -0.72400
O1371       O  0.32241183  0.92456744  0.22842989    -0.51700
O1372       O  0.31057466  0.93654560  0.30283999    -0.96300
O1373       O  0.25090967  0.97728089  0.34606074    -0.53600
O1374       O  0.24884919  0.92804649  0.30546082    -0.72900
C1375       C  0.22715530  0.91647430  0.29581940     0.99400
O1376       O  0.17996552  0.95395642  0.20857181    -0.61700
O1377       O  0.16972819  0.56935251  0.27120138    -0.56500
O1378       O  0.17071594  0.98080725  0.25910877    -0.93200
O1379       O  0.15919250  0.51552242  0.28312186    -0.91700
O1380       O  0.17774320  0.55804852  0.19561139    -0.92000
O1381       O  0.18643804  0.51211672  0.16514550    -0.90800
C1382       C  0.15991861  0.00280112  0.27116491     1.18300
H1383       H  0.22543320  0.57105679  0.24106011     0.34200
H1384       H  0.24136424  0.97157179  0.18684155     0.45100
H1385       H  0.21243225  0.98110803  0.30102644     0.38600
H1386       H  0.32130664  0.98266313  0.26950227     0.35100
H1387       H  0.23047035  0.54501702  0.14188947     0.26900
H1388       H  0.33488518  0.92235677  0.21170652     0.32800
H1389       H  0.30528654  0.92132152  0.29006760     0.38700
H1390       H  0.18032508  0.57328692  0.20934993     0.33200
H1391       H  0.16470351  0.57729552  0.29003459     0.32000
H1392       H  0.18022403  0.54628983  0.33417181     0.33700
H1393       H  0.23398321  0.96630713  0.34568638     0.32700
H1394       H  0.19445482  0.00833046  0.17163650     0.36700
H1395       H  0.16840586  0.97154499  0.20618975     0.29400
H1396       H  0.32667903  0.57273169  0.26625777     0.33700
H1397       H  0.30525661  0.96520012  0.34994445     0.36500
H1398       H  0.17944903  0.58433746  0.26138923     0.29100
H1399       H  0.18954302  0.95151793  0.19002370     0.42000
H1400       H  0.29533469  0.94931394  0.16049867     0.32000
H1401       H  0.25941442  0.53348054  0.15347513     0.39700
H1402       H  0.24371758  0.99699329  0.34659555     0.31500
H1403       H  0.33479659  0.92965703  0.24422900     0.31600
H1404       H  0.32613472  0.54758361  0.28778199     0.31800
O1405       O  0.32477001  0.76196785  0.07459517    -0.74500
O1406       O  0.33216844  0.71711365  0.09028062    -0.53400
C1407       C  0.34013860  0.73929196  0.07781188     0.79200
O1408       O  0.25607938  0.82514545  0.17633379    -0.59100
O1409       O  0.21251866  0.82986964  0.15676172    -0.52100
C1410       C  0.23253507  0.83888147  0.17196932     0.71300
O1411       O  0.32846332  0.76318802  0.16631325    -0.73600
O1412       O  0.33533153  0.71893220  0.14896168    -0.54200
C1413       C  0.34389109  0.74100972  0.16123573     0.77300
O1414       O  0.25316813  0.82581994  0.07231024    -0.58800
O1415       O  0.21123741  0.83042724  0.09545429    -0.51900
C1416       C  0.23016582  0.83956908  0.07885527     0.73900
Zr1417     Zr  0.27604855  0.77948880  0.08018808     2.54700
O1418       O  0.30733825  0.81394125  0.06237444    -0.79400
O1419       O  0.26727742  0.77026266  0.03026217    -0.92800
Zr1420     Zr  0.27951071  0.77967245  0.16470855     2.64700
O1421       O  0.31377701  0.81410014  0.17515630    -0.97700
O1422       O  0.27686028  0.77030870  0.21540053    -0.79800
O1423       O  0.29798826  0.76102067  0.12162194    -0.83100
O1424       O  0.25841449  0.79929477  0.12333503    -2.17900
O1425       O  0.17605872  0.74461846  0.07205390    -0.66500
O1426       O  0.16890291  0.78587492  0.09569643    -0.51100
C1427       C  0.16117453  0.76694452  0.07844247     0.72200
O1428       O  0.25019017  0.67535224  0.17548025    -0.59400
O1429       O  0.29260216  0.67125774  0.15320720    -0.51400
C1430       C  0.27354652  0.66192266  0.16945581     0.74000
O1431       O  0.17896006  0.74074332  0.17996490    -0.70800
O1432       O  0.17062400  0.78299353  0.15808302    -0.49500
C1433       C  0.16352162  0.76306100  0.17462921     0.75400
O1434       O  0.24152670  0.67380650  0.07836075    -0.66200
O1435       O  0.28671136  0.66898780  0.09393996    -0.53400
C1436       C  0.26476817  0.65951846  0.08210316     0.73800
Zr1437     Zr  0.22186769  0.72159852  0.08296861     2.77500
O1438       O  0.18626797  0.68774535  0.07576185    -0.96900
O1439       O  0.22829199  0.72317908  0.03185313    -0.77700
Zr1440     Zr  0.22571517  0.72094507  0.16717834     2.70100
O1441       O  0.19334620  0.68397425  0.17355575    -0.79000
O1442       O  0.23259089  0.72434489  0.21812676    -0.98100
Zr1443     Zr  0.29229634  0.71181565  0.12185867     2.21500
Zr1444     Zr  0.21002074  0.78906954  0.12586699     2.11100
O1445       O  0.20313284  0.73992673  0.12599258    -2.46800
O1446       O  0.24386151  0.70229970  0.12412964    -0.78800
O1447       O  0.22792336  0.77036875  0.08196234    -0.71000
O1448       O  0.27394853  0.73066450  0.16569400    -2.31900
O1449       O  0.27021604  0.73055215  0.07952503    -2.28100
O1450       O  0.23159968  0.76991037  0.16793238    -0.72700
H1451       H  0.26098928  0.81911168  0.12347099     0.79300
H1452       H  0.28386466  0.72217206  0.18165635     0.80400
H1453       H  0.18349188  0.73631657  0.12655635     0.82600
H1454       H  0.27854479  0.72202515  0.06273457     0.80200
H1455       H  0.29260178  0.75660490  0.21926871     0.43200
H1456       H  0.21701723  0.71405667  0.22616223     0.42200
H1457       H  0.18661442  0.68017210  0.15412767     0.41900
H1458       H  0.17050087  0.69376363  0.08834500     0.39800
H1459       H  0.23668168  0.70449234  0.02695422     0.42900
H1460       H  0.28574213  0.76372390  0.02261819     0.37700
H1461       H  0.31467626  0.82272607  0.07966213     0.43800
H1462       H  0.30824706  0.83066864  0.16345168     0.40300
H1463       H  0.17921331  0.69123482  0.05622686     0.45200
H1464       H  0.26364131  0.78899715  0.02172504     0.43900
H1465       H  0.30993887  0.81993344  0.19500608     0.44000
H1466       H  0.24950734  0.71217598  0.22209144     0.44400
O1467       O  0.32588406  0.75625935  0.32179492    -0.74500
O1468       O  0.33041847  0.71336656  0.34289006    -0.53400
C1469       C  0.33964238  0.73308641  0.32742913     0.79200
O1470       O  0.26045879  0.82635596  0.42383471    -0.59100
O1471       O  0.21797900  0.83527326  0.40263423    -0.52100
C1472       C  0.23875439  0.84229208  0.41813577     0.71300
O1473       O  0.32555369  0.75682249  0.42456566    -0.73600
O1474       O  0.33063401  0.71445141  0.40266231    -0.54200
C1475       C  0.33955007  0.73389739  0.41870065     0.77300
O1476       O  0.26158914  0.82644550  0.32149475    -0.58800
O1477       O  0.21879978  0.83542037  0.34206046    -0.51900
C1478       C  0.23996333  0.84251324  0.32710334     0.73900
Zr1479     Zr  0.27965122  0.77879660  0.32988143     2.54700
O1480       O  0.31603991  0.81104313  0.32005816    -0.79400
O1481       O  0.27288850  0.77433882  0.27893842    -0.92800
Zr1482     Zr  0.27994796  0.77942048  0.41429101     2.64700
O1483       O  0.31775552  0.81132893  0.41779483    -0.97700
O1484       O  0.27492437  0.77661955  0.46558775    -0.79800
O1485       O  0.29897699  0.75933573  0.37219550    -0.83100
O1486       O  0.26163794  0.79975270  0.37204262    -2.17900
O1487       O  0.17807091  0.75093759  0.31621641    -0.66500
O1488       O  0.17109137  0.79135561  0.34159970    -0.51100
C1489       C  0.16368473  0.77336929  0.32305393     0.72200
O1490       O  0.24094800  0.67780551  0.42420762    -0.59400
O1491       O  0.28423029  0.67125090  0.40404859    -0.51400
C1492       C  0.26387302  0.66308862  0.41936308     0.74000
O1493       O  0.17646472  0.74973716  0.42554118    -0.70800
O1494       O  0.17161889  0.79226071  0.40349582    -0.49500
C1495       C  0.16274479  0.77293462  0.41975899     0.75400
O1496       O  0.23953493  0.67691960  0.32282881    -0.66200
O1497       O  0.28309272  0.67059788  0.34240893    -0.53400
C1498       C  0.26239798  0.66219582  0.32772379     0.73800
Zr1499     Zr  0.22118015  0.72502716  0.33060910     2.77500
O1500       O  0.18317883  0.69334693  0.32647594    -0.96900
O1501       O  0.22897290  0.72629929  0.27969956    -0.77700
Zr1502     Zr  0.22140410  0.72550228  0.41478191     2.70100
O1503       O  0.18372807  0.69376389  0.42012824    -0.79000
O1504       O  0.22797927  0.73027909  0.46572815    -0.98100
Zr1505     Zr  0.28897068  0.71126872  0.37274541     2.21500
Zr1506     Zr  0.21228065  0.79418575  0.37223559     2.11100
O1507       O  0.20223891  0.74568356  0.37252623    -2.46800
O1508       O  0.23993820  0.70471700  0.37285500    -0.78800
O1509       O  0.23067479  0.77326507  0.32941106    -0.71000
O1510       O  0.27026897  0.73146816  0.41559138    -2.31900
O1511       O  0.27011260  0.73081684  0.32948468    -2.28100
O1512       O  0.23099647  0.77367392  0.41511828    -0.72700
H1513       H  0.26597645  0.81915552  0.37217638     0.79300
H1514       H  0.27871648  0.72253506  0.43217127     0.80400
H1515       H  0.18230715  0.74353593  0.37233673     0.82600
H1516       H  0.27854858  0.72164968  0.31307291     0.80200
H1517       H  0.25575105  0.78452750  0.46932404     0.43200
H1518       H  0.21472753  0.74585249  0.47132672     0.42200
H1519       H  0.17579460  0.69240267  0.40077875     0.41900
H1520       H  0.16842547  0.70090099  0.33952616     0.39800
H1521       H  0.22140584  0.74504090  0.27381589     0.42900
H1522       H  0.28892114  0.78368865  0.27058721     0.37700
H1523       H  0.32060045  0.81876171  0.33889056     0.43800
H1524       H  0.31326368  0.82606595  0.40348629     0.40100
H1525       H  0.17539650  0.69660828  0.30718755     0.45200
H1526       H  0.25648190  0.78710594  0.27463619     0.43900
H1527       H  0.31503056  0.82071301  0.43637801     0.44000
H1528       H  0.21992433  0.71341407  0.47383604     0.44400
C1529       C  0.25627428  0.61761152  0.18611632    -0.15600
C1530       C  0.27826517  0.63338561  0.18166301    -0.30800
H1531       H  0.23564928  0.62604894  0.17982072     0.13400
H1532       H  0.29941648  0.62482676  0.18532892     0.14000
C1533       C  0.22862705  0.86731932  0.18484920    -0.15600
C1534       C  0.25092487  0.88184025  0.19223242    -0.30800
H1535       H  0.20764202  0.87687597  0.18688274     0.13400
H1536       H  0.27171702  0.87239701  0.18833372     0.14000
C1537       C  0.24271997  0.61894284  0.30920013    -0.15600
C1538       C  0.26524659  0.63359145  0.31535284    -0.30800
H1539       H  0.22204315  0.62790297  0.31450805     0.13400
H1540       H  0.28611534  0.62419307  0.31191738     0.14000
C1541       C  0.22091970  0.88864051  0.30754459    -0.15600
C1542       C  0.24204784  0.87157258  0.31712374    -0.30800
H1543       H  0.19989505  0.88129112  0.30611021     0.13400
H1544       H  0.26323391  0.87864074  0.31577959     0.14000
C1545       C  0.24526348  0.62044333  0.44092710    -0.15600
C1546       C  0.26731481  0.63467219  0.43225510    -0.30800
H1547       H  0.22432046  0.62989206  0.43800350     0.13400
H1548       H  0.28827659  0.62492217  0.43372530     0.14000
C1549       C  0.24034438  0.87121338  0.42866464    -0.15600
C1550       C  0.21920558  0.88721006  0.43981308    -0.30800
H1551       H  0.26130837  0.87888483  0.42944215     0.13400
H1552       H  0.19855390  0.87906609  0.44186204     0.14000
C1553       C  0.26425517  0.62981179  0.07328781    -0.15600
C1554       C  0.28461847  0.61509772  0.05905507    -0.30800
H1555       H  0.24416988  0.62056587  0.07598377     0.13400
H1556       H  0.30402525  0.62473719  0.05392633     0.14000
C1557       C  0.24735069  0.88305551  0.05894306    -0.15600
C1558       C  0.22550754  0.86808602  0.06662826    -0.30800
H1559       H  0.26842279  0.87424026  0.06271873     0.13400
H1560       H  0.20430269  0.87715889  0.06486740     0.14000
C1561       C  0.13535337  0.76602165  0.18814796    -0.15600
C1562       C  0.12135663  0.74368371  0.19650124    -0.30800
H1563       H  0.12539470  0.78682315  0.19000631     0.13400
H1564       H  0.13078436  0.72287935  0.19285491     0.14000
C1565       C  0.37356903  0.74267651  0.16982919    -0.15600
C1566       C  0.38895319  0.72185982  0.18235894    -0.30800
H1567       H  0.38180364  0.76336942  0.16933004     0.13400
H1568       H  0.37999425  0.70171503  0.18539569     0.14000
C1569       C  0.11220497  0.77703137  0.32282594    -0.15600
C1570       C  0.13644567  0.77792803  0.30846513    -0.30800
H1571       H  0.11284378  0.77490895  0.34583351     0.13400
H1572       H  0.13621999  0.77641223  0.28543139     0.14000
C1573       C  0.38284127  0.75105594  0.30754489    -0.15600
C1574       C  0.36813783  0.72902589  0.31517572    -0.30800
H1575       H  0.37407951  0.77205215  0.31158235     0.13400
H1576       H  0.37743793  0.70796113  0.31319684     0.14000
C1577       C  0.11915042  0.75466690  0.43743512    -0.15600
C1578       C  0.13427524  0.77698362  0.43208377    -0.30800
H1579       H  0.12802262  0.73398901  0.43210968     0.13400
H1580       H  0.12516350  0.79798216  0.43516897     0.14000
C1581       C  0.36802924  0.72991581  0.43127550    -0.15600
C1582       C  0.38174446  0.75182602  0.44117788    -0.30800
H1583       H  0.37811953  0.70909141  0.43162453     0.13400
H1584       H  0.37196492  0.77272320  0.43926582     0.14000
C1585       C  0.11937410  0.74897535  0.05538249    -0.15600
C1586       C  0.13299764  0.77090691  0.06518962    -0.30800
H1587       H  0.12910592  0.72810581  0.05780607     0.13400
H1588       H  0.12291172  0.79173108  0.06455322     0.14000
C1589       C  0.38520606  0.71873358  0.05714542    -0.15600
C1590       C  0.36926708  0.74044974  0.06743821    -0.30800
H1591       H  0.37667499  0.69827743  0.05527352     0.13400
H1592       H  0.37746844  0.76115673  0.06674668     0.14000
C1593       C  0.10498037  0.00430734  0.27402587    -0.12500
C1594       C  0.13013786  0.00432605  0.27445098    -0.14000
C1595       C  0.36848001  0.50384227  0.22582676    -0.12500
C1596       C  0.39332837  0.50025414  0.22930713    -0.14000
C1597       C  0.01119862  0.89893291  0.27901369    -0.12500
C1598       C  0.01169600  0.87383143  0.27919008    -0.14000
C1599       C  0.49278082  0.59733765  0.22666413    -0.12500
C1600       C  0.49244464  0.62213129  0.22325020    -0.14000
C1601       C  0.12437680  0.99374881  0.47019007    -0.12500
C1602       C  0.09928123  0.99546717  0.46981908    -0.14000
C1603       C  0.40299263  0.49988302  0.01534010    -0.12500
C1604       C  0.37811490  0.50187452  0.01780005    -0.14000
C1605       C  0.99978650  0.89750386  0.47372541    -0.12500
C1606       C  0.00252205  0.87243843  0.47252658    -0.14000
C1607       C  0.49734117  0.62269303  0.02275878    -0.12500
C1608       C  0.50053057  0.59787731  0.02078790    -0.14000
N1609       N  0.47282386  0.52493122  0.49077716    -0.35800
N1610       N  0.02964431  0.53346870  0.99478242    -0.56400
N1611       N  0.02851398  0.96787674  0.47554330    -0.35800
N1612       N  0.46911266  0.96974472  0.51848296    -0.56400
C1613       C  0.47605869  0.55620459  0.01106780     0.27800
C1614       C  0.44504356  0.52159244  0.48948454     0.27800
C1615       C  0.05061641  0.98209773  0.97778063     0.27800
C1616       C  0.02491054  0.94019905  0.47802692     0.27800
C1617       C  0.02589731  0.55814062  0.00831637     0.36400
C1618       C  0.05747141  0.52869713  0.99155963     0.36400
C1619       C  0.44126258  0.97504074  0.52049936     0.36400
C1620       C  0.47286509  0.94376184  0.50775297     0.36400
C1621       C  0.45014804  0.57063100  0.01023050    -0.21100
C1622       C  0.43076138  0.54749790  0.48771855    -0.21100
C1623       C  0.06012390  0.96031166  0.96031909    -0.21100
C1624       C  0.05072890  0.92578816  0.48005352    -0.21100
C1625       C  0.05146360  0.56951811  0.01324029    -0.22100
C1626       C  0.07156735  0.55070048  0.00277319    -0.22100
C1627       C  0.42718123  0.95206282  0.51159757    -0.22100
C1628       C  0.44730679  0.93211295  0.50361222    -0.22100
C1629       C  0.50170588  0.56868480  0.01421434    -0.17500
C1630       C  0.43227092  0.49598535  0.49232944    -0.17500
C1631       C  0.49917602  0.93002618  0.50344393    -0.17500
C1632       C  0.07003316  0.50548749  0.97723266    -0.17500
H1633       H  0.44578478  0.59300021  0.01087156     0.15400
H1634       H  0.40835540  0.55183911  0.48690165     0.15400
H1635       H  0.07905360  0.95904431  0.94769217     0.15400
H1636       H  0.05489300  0.90345933  0.48197489     0.15400
H1637       H  0.05517990  0.58936793  0.02306594     0.13700
H1638       H  0.09391118  0.55318896  0.00288225     0.13700
H1639       H  0.40480858  0.94978525  0.51125150     0.13700
H1640       H  0.44359173  0.91142136  0.49580209     0.13700
H1641       H  0.48808884  0.50953790  0.49592282     0.27000
H1642       H  0.01316485  0.98319697  0.47042579     0.27000
N1643       N  0.47687640  0.52334830  0.73479468    -0.35800
N1644       N  0.03515501  0.52877867  0.76510726    -0.56400
N1645       N  0.02170407  0.97318892  0.74039385    -0.35800
N1646       N  0.46850867  0.96814016  0.76739950    -0.56400
C1647       C  0.47875236  0.55116998  0.73816830     0.27800
C1648       C  0.44936480  0.51838156  0.73497393     0.27800
C1649       C  0.04735485  0.97807015  0.75064190     0.27800
C1650       C  0.01514018  0.94783589  0.75000866     0.27800
C1651       C  0.02826261  0.55622472  0.76169644     0.36400
C1652       C  0.06105303  0.52693049  0.77644562     0.36400
C1653       C  0.44262857  0.97157990  0.75615967     0.36400
C1654       C  0.47432852  0.94038820  0.76916626     0.36400
C1655       C  0.45216530  0.56399716  0.74028494    -0.21100
C1656       C  0.43359525  0.54330132  0.73814544    -0.21100
C1657       C  0.05734853  0.95544569  0.76675952    -0.21100
C1658       C  0.03697869  0.93635461  0.76640936    -0.21100
C1659       C  0.04997710  0.57199160  0.77090738    -0.22100
C1660       C  0.07089588  0.55337142  0.78001938    -0.22100
C1661       C  0.43151706  0.94589780  0.75147429    -0.22100
C1662       C  0.45172846  0.92604363  0.75959278    -0.22100
C1663       C  0.50366416  0.56549325  0.73760824    -0.17500
C1664       C  0.43807241  0.49212938  0.73131081    -0.17500
C1665       C  0.49919462  0.92799527  0.78063817    -0.17500
C1666       C  0.07680576  0.50166342  0.78090955    -0.17500
H1667       H  0.44667718  0.58602121  0.74295811     0.15400
H1668       H  0.41103815  0.54627715  0.73903800     0.15400
H1669       H  0.07735692  0.95282508  0.77740907     0.15400
H1670       H  0.03831107  0.91612019  0.77670427     0.15400
H1671       H  0.05104441  0.59447425  0.77020337     0.13700
H1672       H  0.09119753  0.55864461  0.78786956     0.13700
H1673       H  0.41100796  0.94191890  0.74322148     0.13700
H1674       H  0.44984603  0.90366071  0.75889322     0.13700
H1675       H  0.49312313  0.50904038  0.72951386     0.27000
H1676       H  0.01089500  0.98473421  0.72484862     0.27000
Zr1677     Zr  0.46131779  0.71117165  0.99105390     2.17500
O1678       O  0.44443021  0.67642660  0.95836404    -0.50500
O1679       O  0.42452033  0.70599628  0.52594500    -0.73700
O1680       O  0.47593114  0.66193121  0.49948780    -0.80500
O1681       O  0.42487614  0.77044567  0.95016898    -0.82300
O1682       O  0.01181363  0.67002149  0.54390191    -0.77900
O1683       O  0.41997021  0.72489905  0.96186001    -0.89500
O1684       O  0.43053432  0.73901389  0.55966643    -0.75500
O1685       O  0.48719147  0.71210488  0.53339354    -0.85000
O1686       O  0.45123996  0.75585633  0.50900730    -0.84700
O1687       O  0.00964921  0.70639375  0.97998358    -0.71400
O1688       O  0.48005206  0.73995264  0.95433699    -0.83600
Zr1689     Zr  0.04386811  0.78372191  0.49854381     2.26400
Zr1690     Zr  0.03002231  0.71542159  0.53632721     2.06300
Zr1691     Zr  0.46886285  0.78670192  0.96955331     2.10000
Zr1692     Zr  0.47656062  0.75734842  0.55223097     1.78800
O1693       O  0.47086932  0.80105222  0.91993585    -0.92400
O1694       O  0.48257122  0.72742676  0.59377257    -0.40200
O1695       O  0.49254459  0.79040677  0.51849680    -0.76800
O1696       O  0.02335075  0.76505223  0.54094943    -0.95500
O1697       O  0.05107636  0.74227518  0.98736954    -0.88800
O1698       O  0.01655062  0.78358737  0.95873245    -0.91600
C1699       C  0.41629715  0.72017871  0.54791250     1.02100
C1700       C  0.41120022  0.74798585  0.94993104     1.15100
C1701       C  0.49852704  0.64854287  0.50741136     1.05800
O1702       O  0.02818079  0.71603987  0.58799837    -0.93800
O1703       O  0.07677847  0.72873851  0.54823649    -0.89500
O1704       O  0.08222345  0.77286186  0.53224853    -0.82700
C1705       C  0.09083248  0.75064721  0.54571965     1.12500
O1706       O  0.01255524  0.70325047  0.90866121    -0.95800
Zr1707     Zr  0.02665837  0.73668552  0.94411598     1.88900
O1708       O  0.07960441  0.78805698  0.96855604    -0.72400
O1709       O  0.06643100  0.67777693  0.53583093    -0.51700
O1710       O  0.06208364  0.69845181  0.94069913    -0.96300
O1711       O  0.01833664  0.75619782  0.89699011    -0.53600
O1712       O  0.06915386  0.75941802  0.93209090    -0.72900
C1713       C  0.08519897  0.77605670  0.94460863     0.99400
O1714       O  0.06808344  0.82508836  0.51243884    -0.61700
O1715       O  0.43084900  0.82103987  0.97977087    -0.56500
O1716       O  0.02588437  0.83678457  0.99190001    -0.93200
O1717       O  0.48363653  0.83388483  0.97481049    -0.91700
O1718       O  0.44690708  0.79766538  0.56663981    -0.92000
O1719       O  0.49484616  0.78321625  0.59195367    -0.90800
C1720       C  0.00329683  0.84965172  0.98313176     1.18300
H1721       H  0.43142184  0.75960200  0.51175274     0.34200
H1722       H  0.03273529  0.77138258  0.55773926     0.45100
H1723       H  0.02258908  0.79683977  0.94481644     0.38600
H1724       H  0.01304990  0.68739325  0.97357223     0.35100
H1725       H  0.47483763  0.70944248  0.58838670     0.26900
H1726       H  0.06466823  0.66774778  0.55411157     0.32800
H1727       H  0.07529846  0.70434141  0.92593791     0.38700
H1728       H  0.43006601  0.79703801  0.55450471     0.33200
H1729       H  0.42284827  0.82625784  0.96098066     0.32000
H1730       H  0.48062013  0.81875035  0.92008087     0.33700
H1731       H  0.02574835  0.77506733  0.89766129     0.32700
H1732       H  0.99999634  0.82696162  0.55984956     0.36700
H1733       H  0.06714823  0.82567349  0.53345274     0.29400
H1734       H  0.43442506  0.66315828  0.97032579     0.33700
H1735       H  0.02890305  0.70021845  0.89592549     0.36500
H1736       H  0.41575065  0.80833714  0.50147697     0.29100
H1737       H  0.08807062  0.82087017  0.50793184     0.42000
H1738       H  0.01154267  0.70558759  0.59288784     0.32000
H1739       H  0.50300644  0.72331923  0.59511465     0.39700
H1740       H  0.99778566  0.75960102  0.89597633     0.31500
H1741       H  0.06066299  0.66789234  0.99335025     0.31600
H1742       H  0.46139808  0.66571601  0.95164191     0.31800
Zr1743     Zr  0.03711565  0.78797567  0.73963633     2.17500
O1744       O  0.05559211  0.81827431  0.70325702    -0.50500
O1745       O  0.07300722  0.79609252  0.77587090    -0.73700
O1746       O  0.02027663  0.83666305  0.74590778    -0.80500
O1747       O  0.07898945  0.72459714  0.71084735    -0.82300
O1748       O  0.48152042  0.83232717  0.78137398    -0.77900
O1749       O  0.08033860  0.77178944  0.71472688    -0.89500
O1750       O  0.06572979  0.76647682  0.81260983    -0.75500
O1751       O  0.00954558  0.78844414  0.78205139    -0.85000
O1752       O  0.04790152  0.74446740  0.76239657    -0.84700
O1753       O  0.48899004  0.79329681  0.73252296    -0.71400
O1754       O  0.02370296  0.75291061  0.70649644    -0.83600
Zr1755     Zr  0.46008693  0.71036123  0.75742793     2.26400
Zr1756     Zr  0.46374543  0.78665122  0.77594310     2.06300
Zr1757     Zr  0.03465452  0.70964201  0.73000574     2.10000
Zr1758     Zr  0.02107962  0.74525619  0.80490238     1.78800
O1759       O  0.04149868  0.68743181  0.68386063    -0.92400
O1760       O  0.01065330  0.77948229  0.84208264    -0.40200
O1761       O  0.00797799  0.70891584  0.77316462    -0.76800
O1762       O  0.47517571  0.74094151  0.79426218    -0.95500
O1763       O  0.44866311  0.75611822  0.74021516    -0.88800
O1764       O  0.48495713  0.71547741  0.71386185    -0.91600
C1765       C  0.08038065  0.78424622  0.79953512     1.02100
C1766       C  0.09113510  0.74766165  0.70730840     1.15100
C1767       C  0.99738446  0.84960690  0.75389824     1.05800
O1768       O  0.45245375  0.79934358  0.82484730    -0.93800
O1769       O  0.41744106  0.77147654  0.78816516    -0.89500
O1770       O  0.41603345  0.72465019  0.78136454    -0.82700
C1771       C  0.40499257  0.74841249  0.78939747     1.12500
O1772       O  0.48845265  0.79487868  0.66177039    -0.95800
Zr1773     Zr  0.47361750  0.76158821  0.69728755     1.88900
O1774       O  0.42373421  0.70563864  0.72148139    -0.72400
O1775       O  0.42905220  0.82080872  0.75698873    -0.51700
O1776       O  0.43852490  0.79919566  0.68800999    -0.96300
O1777       O  0.48237455  0.73889373  0.65178623    -0.53600
O1778       O  0.42989609  0.73941144  0.68837535    -0.72900
C1779       C  0.41601184  0.71981763  0.69935253     0.99400
O1780       O  0.44472448  0.67626072  0.79196399    -0.61700
O1781       O  0.07180805  0.68122425  0.75317961    -0.56500
O1782       O  0.47422610  0.66268143  0.74396300    -0.93200
O1783       O  0.01948220  0.66274294  0.73511619    -0.91700
O1784       O  0.05172722  0.70877851  0.82615830    -0.92000
O1785       O  0.00289342  0.72098862  0.84589468    -0.90800
C1786       C  0.49691306  0.65031084  0.73481843     1.18300
H1787       H  0.06769436  0.74169076  0.76610229     0.34200
H1788       H  0.46468762  0.73798763  0.81145310     0.45100
H1789       H  0.47962199  0.70169357  0.70024176     0.38600
H1790       H  0.48550013  0.81214516  0.72565834     0.35100
H1791       H  0.01738569  0.79738707  0.83499732     0.26900
H1792       H  0.42487656  0.83387782  0.77287425     0.32800
H1793       H  0.42368264  0.79656873  0.70227758     0.38700
H1794       H  0.06052981  0.71783084  0.84253495     0.33200
H1795       H  0.08480804  0.69462248  0.76101654     0.32000
H1796       H  0.06072273  0.67875608  0.68450956     0.33700
H1797       H  0.47553079  0.71987265  0.65381390     0.32700
H1798       H  0.49558737  0.69332073  0.83272584     0.36700
H1799       H  0.46123693  0.66343517  0.79555699     0.29400
H1800       H  0.06573974  0.83248789  0.71373553     0.33700
H1801       H  0.47455843  0.79433972  0.64622736     0.36500
H1802       H  0.06284752  0.67330906  0.77013555     0.29100
H1803       H  0.44234683  0.68670006  0.81000842     0.42000
H1804       H  0.46847089  0.80978502  0.83154242     0.32000
H1805       H  0.99001868  0.78216497  0.84220010     0.39700
H1806       H  0.50297577  0.73609242  0.65071573     0.31500
H1807       H  0.43919582  0.83187250  0.74293803     0.31600
H1808       H  0.03909618  0.82858695  0.69491221     0.31800
Zr1809     Zr  0.21169044  0.96112208  0.50804313     2.17500
O1810       O  0.17571512  0.94395203  0.53924815    -0.50500
O1811       O  0.20564005  0.92481799  0.97143416    -0.73700
O1812       O  0.16169851  0.97687028  0.99146204    -0.80500
O1813       O  0.27036153  0.92470664  0.55029606    -0.82300
O1814       O  0.16690736  0.51917897  0.96865850    -0.77900
O1815       O  0.22520280  0.91989402  0.53694850    -0.89500
O1816       O  0.24263090  0.92795653  0.94153972    -0.75500
O1817       O  0.21590537  0.98455463  0.96185241    -0.85000
O1818       O  0.25627695  0.95091682  0.99334993    -0.84700
O1819       O  0.20658678  0.51135835  0.52042541    -0.71400
O1820       O  0.23779339  0.98060966  0.54628611    -0.83600
Zr1821     Zr  0.28929293  0.53993190  0.99160900     2.26400
Zr1822     Zr  0.21368304  0.53427097  0.97095310     2.06300
Zr1823     Zr  0.28542562  0.96959175  0.53395873     2.10000
Zr1824     Zr  0.26294121  0.97283327  0.94884255     1.78800
O1825       O  0.29264020  0.96954193  0.58516665    -0.92400
O1826       O  0.23772355  0.97991998  0.90438450    -0.40200
O1827       O  0.29234012  0.99074371  0.98495841    -0.76800
O1828       O  0.26003061  0.52219068  0.95485284    -0.95500
O1829       O  0.24257869  0.55132664  0.50886408    -0.88800
O1830       O  0.28585498  0.51478353  0.53259240    -0.91600
C1831       C  0.22167396  0.91525898  0.95131226     1.02100
C1832       C  0.24810773  0.91096899  0.54907290     1.15100
C1833       C  0.15000500  0.99804807  0.97852637     1.05800
O1834       O  0.20138800  0.53737311  0.92079089    -0.93800
O1835       O  0.22812302  0.57968395  0.95623642    -0.89500
O1836       O  0.27420969  0.58313951  0.96645881    -0.82700
C1837       C  0.25063322  0.59297592  0.95645549     1.12500
O1838       O  0.21517969  0.51025350  0.59313338    -0.95800
Zr1839     Zr  0.24128208  0.52674431  0.55255189     1.88900
O1840       O  0.29426887  0.57658037  0.52283393    -0.72400
O1841       O  0.18099721  0.57283824  0.98395443    -0.51700
O1842       O  0.20300540  0.55827465  0.56872255    -0.96300
O1843       O  0.27082531  0.52143068  0.59440844    -0.53600
O1844       O  0.26089392  0.57240417  0.55661545    -0.72900
C1845       C  0.28035061  0.58568283  0.54461578     0.99400
O1846       O  0.32421401  0.55320075  0.95691226    -0.61700
O1847       O  0.32266322  0.93422041  0.52432296    -0.56500
O1848       O  0.33542357  0.52355998  0.49563274    -0.93200
O1849       O  0.33183266  0.98578212  0.53711989    -0.91700
O1850       O  0.30260411  0.93995741  0.94041098    -0.92000
O1851       O  0.29494338  0.98393929  0.91068696    -0.90800
C1852       C  0.34835819  0.50100074  0.50425500     1.18300
H1853       H  0.26006185  0.93099138  0.99193005     0.34200
H1854       H  0.26350157  0.53154616  0.93709190     0.45100
H1855       H  0.30091516  0.52001512  0.54478401     0.38600
H1856       H  0.18867669  0.51539064  0.52939368     0.35100
H1857       H  0.24622270  0.96518349  0.89194808     0.26900
H1858       H  0.16806900  0.57517287  0.96760281     0.32800
H1859       H  0.20343799  0.57466706  0.55593545     0.38700
H1860       H  0.29924637  0.92375820  0.95280091     0.33200
H1861       H  0.32638394  0.92478972  0.54277879     0.32000
H1862       H  0.31199503  0.96164564  0.58781452     0.33700
H1863       H  0.28648313  0.53379240  0.59139824     0.32700
H1864       H  0.30998692  0.49559062  0.91755673     0.36700
H1865       H  0.33467558  0.53552943  0.95187529     0.29400
H1866       H  0.16415583  0.93238898  0.52697928     0.33700
H1867       H  0.19940301  0.50060901  0.58467702     0.36500
H1868       H  0.31088463  0.91730786  0.01149559     0.29100
H1869       H  0.31359489  0.55817812  0.93941904     0.42000
H1870       H  0.21616218  0.54814114  0.91187591     0.32000
H1871       H  0.21862275  0.97381338  0.90809593     0.39700
H1872       H  0.27937795  0.50224860  0.59334197     0.31500
H1873       H  0.17282027  0.56887256  0.51226729     0.31600
H1874       H  0.16345727  0.96055612  0.54400731     0.31800
Zr1875     Zr  0.29812638  0.53637743  0.75416006     2.17500
O1876       O  0.33744871  0.55033662  0.78296126    -0.50500
O1877       O  0.30005674  0.57546472  0.72002138    -0.73700
O1878       O  0.34362974  0.51954490  0.73593216    -0.80500
O1879       O  0.24552312  0.57596989  0.80086252    -0.82300
O1880       O  0.33348969  0.98046244  0.72971426    -0.77900
O1881       O  0.29103212  0.57540370  0.78673682    -0.89500
O1882       O  0.26328361  0.57216104  0.68994704    -0.75500
O1883       O  0.28772119  0.51436925  0.71035394    -0.85000
O1884       O  0.25103622  0.55108383  0.74347670    -0.84700
O1885       O  0.28864400  0.98988980  0.76967570    -0.71400
O1886       O  0.27037212  0.52027829  0.79315280    -0.83600
Zr1887     Zr  0.20869450  0.96102020  0.73770541     2.26400
Zr1888     Zr  0.28642002  0.96548809  0.72523424     2.06300
Zr1889     Zr  0.22329430  0.53501868  0.78157771     2.10000
Zr1890     Zr  0.24061414  0.52904913  0.69988984     1.78800
O1891       O  0.21182137  0.53680815  0.83197698    -0.92400
O1892       O  0.25982304  0.52480699  0.65227852    -0.40200
O1893       O  0.21171356  0.51331238  0.73752988    -0.76800
O1894       O  0.24204027  0.97679583  0.70364376    -0.95500
O1895       O  0.25310541  0.94951508  0.75804318    -0.88800
O1896       O  0.20962267  0.98528794  0.78194861    -0.91600
C1897       C  0.28426546  0.58484287  0.69955586     1.02100
C1898       C  0.26986652  0.58633230  0.80019424     1.15100
C1899       C  0.35398239  0.49739440  0.72379218     1.05800
O1900       O  0.30550059  0.96031606  0.67740953    -0.93800
O1901       O  0.27218626  0.91995734  0.70928987    -0.89500
O1902       O  0.22516294  0.91750209  0.71464330    -0.82700
C1903       C  0.24937251  0.90713752  0.70711423     1.12500
O1904       O  0.27748057  0.99076786  0.84378493    -0.95800
Zr1905     Zr  0.25426658  0.97349703  0.80184446     1.88900
O1906       O  0.20179003  0.92350758  0.77214871    -0.72400
O1907       O  0.31639723  0.92744959  0.74473083    -0.51700
O1908       O  0.29473736  0.94393768  0.81643455    -0.96300
O1909       O  0.22406145  0.97449771  0.84355009    -0.53600
O1910       O  0.23654078  0.92678200  0.80463079    -0.72900
C1911       C  0.21667890  0.91378886  0.79304603     0.99400
O1912       O  0.17663411  0.94673219  0.70071676    -0.61700
O1913       O  0.19153452  0.57453891  0.76887945    -0.56500
O1914       O  0.16011122  0.97508997  0.74704788    -0.93200
O1915       O  0.17506491  0.52207284  0.78485333    -0.91700
O1916       O  0.20133238  0.56318742  0.69589280    -0.92000
O1917       O  0.20573146  0.51641931  0.66526342    -0.90800
C1918       C  0.14684587  0.99755889  0.75533934     1.18300
H1919       H  0.24855957  0.57118096  0.74219751     0.34200
H1920       H  0.24050648  0.96663676  0.68606183     0.45100
H1921       H  0.19463249  0.97976661  0.79411406     0.38600
H1922       H  0.30670035  0.98615528  0.77845013     0.35100
H1923       H  0.25132201  0.54128855  0.64216521     0.26900
H1924       H  0.33110660  0.92374878  0.73022354     0.32800
H1925       H  0.29369224  0.92674322  0.80496542     0.38700
H1926       H  0.20624361  0.57877762  0.70836902     0.33200
H1927       H  0.17974291  0.57799137  0.78593218     0.32000
H1928       H  0.19495432  0.54961488  0.83321919     0.33700
H1929       H  0.20808516  0.96304010  0.83889785     0.32700
H1930       H  0.20056149  0.99508826  0.66030991     0.36700
H1931       H  0.16630666  0.96414741  0.69459104     0.29400
H1932       H  0.34999229  0.55999147  0.76988689     0.33700
H1933       H  0.29290394  0.00155746  0.83616328     0.36500
H1934       H  0.20330874  0.59086595  0.76781939     0.29100
H1935       H  0.18853241  0.94163669  0.68411419     0.42000
H1936       H  0.29139209  0.95029673  0.66662598     0.32000
H1937       H  0.27978772  0.52887969  0.65428236     0.39700
H1938       H  0.21599579  0.99387220  0.84465771     0.31500
H1939       H  0.32621844  0.93561793  0.76097404     0.31600
H1940       H  0.34795231  0.53278223  0.78839690     0.31800
O1941       O  0.32718445  0.75925075  0.57582618    -0.74500
O1942       O  0.33386126  0.71443172  0.59198804    -0.53400
C1943       C  0.34233668  0.73648422  0.57951129     0.79200
O1944       O  0.25766324  0.82171104  0.67821089    -0.59100
O1945       O  0.21524921  0.82790544  0.65620483    -0.52100
C1946       C  0.23465139  0.83600162  0.67276583     0.71300
O1947       O  0.32870638  0.75732424  0.67004637    -0.73600
O1948       O  0.33502294  0.71347378  0.65146756    -0.54200
C1949       C  0.34363059  0.73480818  0.66501206     0.77300
O1950       O  0.25618919  0.82413898  0.57290058    -0.58800
O1951       O  0.21373568  0.82892142  0.59507347    -0.51900
C1952       C  0.23311852  0.83805105  0.57911164     0.73900
Zr1953     Zr  0.27848919  0.77720109  0.58078669     2.54700
O1954       O  0.31065436  0.81152851  0.56451607    -0.79400
O1955       O  0.26982567  0.76739260  0.53105420    -0.92800
Zr1956     Zr  0.28101697  0.77674551  0.66490849     2.64700
O1957       O  0.31555716  0.81228420  0.66613688    -0.97700
O1958       O  0.28284938  0.77019180  0.71608981    -0.79800
O1959       O  0.29954817  0.75753694  0.62222646    -0.83100
O1960       O  0.26032934  0.79681116  0.62360458    -2.17900
O1961       O  0.17721766  0.74374822  0.57151832    -0.66500
O1962       O  0.17103423  0.78563399  0.59425119    -0.51100
C1963       C  0.16283082  0.76653954  0.57748739     0.72200
O1964       O  0.24499070  0.67246551  0.67072547    -0.59400
O1965       O  0.28916586  0.66677950  0.65251700    -0.51400
C1966       C  0.26787635  0.65786368  0.66602606     0.74000
O1967       O  0.17761115  0.74017376  0.67735106    -0.70800
O1968       O  0.17121430  0.78298014  0.65632588    -0.49500
C1969       C  0.16292513  0.76304695  0.67220727     0.75400
O1970       O  0.24349923  0.67311793  0.57568952    -0.66200
O1971       O  0.28822653  0.66702781  0.59229093    -0.53400
C1972       C  0.26648258  0.65840049  0.57938651     0.73800
Zr1973     Zr  0.22312250  0.72042524  0.58212606     2.77500
O1974       O  0.18841326  0.68570509  0.57498722    -0.96900
O1975       O  0.22895976  0.72313500  0.53088570    -0.77700
Zr1976     Zr  0.22515265  0.72029949  0.66668046     2.70100
O1977       O  0.19279112  0.68644480  0.68352931    -0.79000
O1978       O  0.23703729  0.72867294  0.71605680    -0.98100
Zr1979     Zr  0.29277991  0.70850002  0.62242811     2.21500
Zr1980     Zr  0.21168863  0.78764814  0.62508164     2.11100
O1981       O  0.20361400  0.73885079  0.62486431    -2.46800
O1982       O  0.24374065  0.70087249  0.62389940    -0.78800
O1983       O  0.23013430  0.76899564  0.58140645    -0.71000
O1984       O  0.27389268  0.72796963  0.66588773    -2.31900
O1985       O  0.27178138  0.72836977  0.57997942    -2.28100
O1986       O  0.23250235  0.76871694  0.66751994    -0.72700
H1987       H  0.26316780  0.81657493  0.62401584     0.79300
H1988       H  0.28318239  0.71925703  0.68212597     0.80400
H1989       H  0.18388971  0.73555305  0.62502599     0.82600
H1990       H  0.28025775  0.71984949  0.56326039     0.80200
H1991       H  0.30113539  0.77713205  0.72178581     0.43200
H1992       H  0.21882891  0.73339990  0.72530514     0.42200
H1993       H  0.18353848  0.68001786  0.66609058     0.41900
H1994       H  0.17358681  0.69029358  0.58916112     0.39800
H1995       H  0.24227547  0.70731272  0.52618353     0.42900
H1996       H  0.28864608  0.76316480  0.52293067     0.37700
H1997       H  0.31611070  0.82126866  0.58203106     0.43800
H1998       H  0.30829263  0.82713191  0.65302573     0.40300
H1999       H  0.17969801  0.69038384  0.55638522     0.45200
H2000       H  0.26378679  0.78580794  0.52296492     0.43900
H2001       H  0.31382851  0.82065881  0.68530274     0.44000
H2002       H  0.24292319  0.71001142  0.72364804     0.44400
O2003       O  0.31915697  0.75549409  0.81817919    -0.74500
O2004       O  0.32490840  0.71265544  0.83922071    -0.53400
C2005       C  0.33348913  0.73250002  0.82344050     0.79200
O2006       O  0.25958565  0.82690051  0.92121964    -0.59100
O2007       O  0.21528280  0.83465151  0.90370680    -0.52100
C2008       C  0.23696310  0.84223035  0.91753617     0.71300
O2009       O  0.32566968  0.75740554  0.91987336    -0.73600
O2010       O  0.32827155  0.71367954  0.90066335    -0.54200
C2011       C  0.33862361  0.73357358  0.91523774     0.77300
O2012       O  0.25274479  0.82320761  0.81756015    -0.58800
O2013       O  0.21186568  0.83335160  0.84140978    -0.51900
C2014       C  0.23167533  0.83968113  0.82422863     0.73900
Zr2015     Zr  0.27169121  0.77575384  0.82658743     2.54700
O2016       O  0.30308754  0.80817325  0.80525466    -0.79400
O2017       O  0.25981125  0.76295339  0.77828336    -0.92800
Zr2018     Zr  0.27945643  0.78012327  0.91060452     2.64700
O2019       O  0.31717559  0.81216301  0.90812181    -0.97700
O2020       O  0.27834064  0.77896984  0.96229581    -0.79800
O2021       O  0.29495680  0.75829294  0.86791016    -0.83100
O2022       O  0.25715540  0.79863133  0.86923948    -2.17900
O2023       O  0.16663767  0.74599111  0.82939004    -0.66500
O2024       O  0.16342648  0.79017093  0.84756266    -0.51100
C2025       C  0.15304489  0.76933488  0.83458890     0.72200
O2026       O  0.24306399  0.67968776  0.92986226    -0.59400
O2027       O  0.28353758  0.67136672  0.90474206    -0.51400
C2028       C  0.26511798  0.66441027  0.92296995     0.74000
O2029       O  0.17882215  0.75247803  0.93548267    -0.70800
O2030       O  0.16910624  0.79119983  0.90788372    -0.49500
C2031       C  0.16343400  0.77422394  0.92818023     0.75400
O2032       O  0.23112841  0.67520011  0.82856373    -0.66200
O2033       O  0.27595778  0.66766583  0.84466582    -0.53400
C2034       C  0.25359225  0.65973348  0.83222907     0.73800
Zr2035     Zr  0.21327752  0.72303930  0.83559522     2.77500
O2036       O  0.17739195  0.68875897  0.83566882    -0.96900
O2037       O  0.21411106  0.72386514  0.78388297    -0.77700
Zr2038     Zr  0.22136186  0.72637936  0.91923748     2.70100
O2039       O  0.18563244  0.69282071  0.92682762    -0.79000
O2040       O  0.23080530  0.73148555  0.96953172    -0.98100
Zr2041     Zr  0.28534876  0.71020513  0.87182515     2.21500
Zr2042     Zr  0.20776506  0.79337588  0.87398351     2.11100
O2043       O  0.19816434  0.74493653  0.87829215    -2.46800
O2044       O  0.23629301  0.70440112  0.87658885    -0.78800
O2045       O  0.22263066  0.77096823  0.83056294    -0.71000
O2046       O  0.27003645  0.73230771  0.91506729    -2.31900
O2047       O  0.26224514  0.72785726  0.82973549    -2.28100
O2048       O  0.23069786  0.77450847  0.91576134    -0.72700
H2049       H  0.26132747  0.81806213  0.86822472     0.79300
H2050       H  0.27980154  0.72413184  0.93130743     0.80400
H2051       H  0.17838942  0.74260125  0.88069994     0.82600
H2052       H  0.26922843  0.71777716  0.81320844     0.80200
H2053       H  0.29824204  0.77774654  0.96810054     0.43200
H2054       H  0.22823546  0.75180068  0.97307309     0.42200
H2055       H  0.17360519  0.69456547  0.90974056     0.41900
H2056       H  0.16440196  0.69461780  0.85119382     0.39800
H2057       H  0.22962017  0.71037856  0.77861591     0.42900
H2058       H  0.27565909  0.75035142  0.77198167     0.37700
H2059       H  0.31514399  0.81376859  0.82112419     0.43800
H2060       H  0.31032785  0.82716371  0.89498173     0.40100
H2061       H  0.16657077  0.69225130  0.81798233     0.45200
H2062       H  0.26176949  0.78033665  0.76726358     0.43900
H2063       H  0.31737157  0.82112126  0.92704368     0.44000
H2064       H  0.21440039  0.72346086  0.97864297     0.44400
C2065       C  0.28932374  0.61283154  0.68699873    -0.15600
C2066       C  0.26761935  0.62845325  0.67596826    -0.30800
H2067       H  0.30970114  0.62154292  0.68910769     0.13400
H2068       H  0.24699043  0.62000230  0.67659917     0.14000
C2069       C  0.23035834  0.86410161  0.68592461    -0.15600
C2070       C  0.25203138  0.87835800  0.69542811    -0.30800
H2071       H  0.20938324  0.87393295  0.68612220     0.13400
H2072       H  0.27310045  0.86891609  0.69358653     0.14000
C2073       C  0.27386693  0.61325040  0.81506684    -0.15600
C2074       C  0.25193719  0.63087391  0.82118403    -0.30800
H2075       H  0.29498601  0.61974917  0.81858635     0.13400
H2076       H  0.23109069  0.62459403  0.81581474     0.14000
C2077       C  0.21135526  0.88541581  0.80420588    -0.15600
C2078       C  0.23303639  0.86851468  0.81297867    -0.30800
H2079       H  0.19037511  0.87786359  0.80362899     0.13400
H2080       H  0.25402891  0.87584169  0.81054596     0.14000
C2081       C  0.24798644  0.62173286  0.94476694    -0.15600
C2082       C  0.26964432  0.63652733  0.93651288    -0.30800
H2083       H  0.22686286  0.63065878  0.94155741     0.13400
H2084       H  0.29078143  0.62715155  0.93762359     0.14000
C2085       C  0.23809470  0.87108047  0.92881285    -0.15600
C2086       C  0.21649385  0.88726505  0.93909005    -0.30800
H2087       H  0.25897616  0.87887268  0.93023696     0.13400
H2088       H  0.19575691  0.87920224  0.94037150     0.14000
C2089       C  0.26557746  0.62907229  0.56947016    -0.15600
C2090       C  0.28616887  0.61380537  0.55621950    -0.30800
H2091       H  0.24510697  0.62037348  0.57096808     0.13400
H2092       H  0.30609281  0.62279335  0.55190452     0.14000
C2093       C  0.25044613  0.88246748  0.56148073    -0.15600
C2094       C  0.22867282  0.86677535  0.56740065    -0.30800
H2095       H  0.27148064  0.87399398  0.56608550     0.13400
H2096       H  0.20742355  0.87551417  0.56479313     0.14000
C2097       C  0.13437181  0.76688969  0.68519628    -0.15600
C2098       C  0.11975285  0.74520841  0.69434282    -0.30800
H2099       H  0.12476809  0.78789732  0.68621393     0.13400
H2100       H  0.12907224  0.72419345  0.69184735     0.14000
C2101       C  0.37304993  0.73558822  0.67456588    -0.15600
C2102       C  0.38846308  0.71432601  0.68639707    -0.30800
H2103       H  0.38148685  0.75621005  0.67458496     0.13400
H2104       H  0.37957379  0.69415002  0.68935444     0.14000
C2105       C  0.10860578  0.78978679  0.81144892    -0.15600
C2106       C  0.12280112  0.76994266  0.82694581    -0.30800
H2107       H  0.11913829  0.80809526  0.80443476     0.13400
H2108       H  0.11265984  0.75061888  0.83123899     0.14000
C2109       C  0.37586804  0.75040188  0.80061904    -0.15600
C2110       C  0.36204485  0.72866658  0.81079113    -0.30800
H2111       H  0.36584757  0.77124141  0.80179823     0.13400
H2112       H  0.37241492  0.70796809  0.81122337     0.14000
C2113       C  0.11211026  0.78065450  0.93011202    -0.15600
C2114       C  0.13675938  0.77895274  0.94392545    -0.30800
H2115       H  0.11222876  0.78016300  0.90701053     0.13400
H2116       H  0.13695183  0.77571797  0.96678944     0.14000
C2117       C  0.36736261  0.72878419  0.92794414    -0.15600
C2118       C  0.38300488  0.75029179  0.93583355    -0.30800
H2119       H  0.37583781  0.70747411  0.93050020     0.13400
H2120       H  0.37468441  0.77141927  0.93159469     0.14000
C2121       C  0.11915932  0.74884059  0.55862582    -0.15600
C2122       C  0.13458943  0.77079693  0.56450985    -0.30800
H2123       H  0.12756555  0.72801398  0.56411343     0.13400
H2124       H  0.12587022  0.79193071  0.56119388     0.14000
C2125       C  0.38789756  0.71562284  0.55962183    -0.15600
C2126       C  0.37182991  0.73742099  0.56963639    -0.30800
H2127       H  0.37921292  0.69526095  0.55756515     0.13400
H2128       H  0.38019195  0.75805938  0.56882166     0.14000
C2129       C  0.09219838  0.00003083  0.75040293    -0.12500
C2130       C  0.11708289  0.99845123  0.75384578    -0.14000
C2131       C  0.38372773  0.49434632  0.72150524    -0.12500
C2132       C  0.40871604  0.49195733  0.72424926    -0.14000
C2133       C  0.99209151  0.90406823  0.74721761    -0.12500
C2134       C  0.99512543  0.87928911  0.75103536    -0.14000
C2135       C  0.50117262  0.59549135  0.73459191    -0.12500
C2136       C  0.49831757  0.62053283  0.73362561    -0.14000
C2137       C  0.12027755  0.99998759  0.97683385    -0.12500
C2138       C  0.09533363  0.00346374  0.97865356    -0.14000
C2139       C  0.40282195  0.49702044  0.49849975    -0.12500
C2140       C  0.37802436  0.49924381  0.50216062    -0.14000
C2141       C  0.00011705  0.90448042  0.98673850    -0.12500
C2142       C  0.00199826  0.87950168  0.98403985    -0.14000
C2143       C  0.49963216  0.61886113  0.50517864    -0.12500
C2144       C  0.50141747  0.59425018  0.50035269    -0.14000
N2145       N  0.96878453  0.03422098  0.01881357    -0.35800
N2146       N  0.52645156  0.03106466  0.51547429    -0.56400
N2147       N  0.53067198  0.47228074  0.97863985    -0.35800
N2148       N  0.97250423  0.47244406  0.99171513    -0.56400
C2149       C  0.97780642  0.05346364  0.51227638     0.27800
C2150       C  0.94110898  0.03017214  0.01772679     0.27800
C2151       C  0.55565944  0.47221797  0.45235700     0.27800
C2152       C  0.52502330  0.44732405  0.96748401     0.27800
C2153       C  0.52058380  0.05885026  0.51737385     0.36400
C2154       C  0.55218929  0.02763368  0.50399012     0.36400
C2155       C  0.94750300  0.47408486  0.00490155     0.36400
C2156       C  0.97879728  0.44508528  0.98720715     0.36400
C2157       C  0.95647118  0.06443273  0.52955746    -0.21100
C2158       C  0.92626452  0.05572763  0.01515205    -0.21100
C2159       C  0.56625769  0.44983880  0.43630912    -0.21100
C2160       C  0.54686749  0.43782584  0.95007967    -0.21100
C2161       C  0.54292210  0.07329016  0.50734301    -0.22100
C2162       C  0.56305650  0.05343875  0.49890478    -0.22100
C2163       C  0.93745513  0.44769717  0.00829126    -0.22100
C2164       C  0.95740657  0.42922655  0.99712660    -0.22100
C2165       C  0.00108789  0.06799747  0.50350807    -0.17500
C2166       C  0.92881800  0.00426145  0.02067350    -0.17500
C2167       C  0.00302632  0.43451052  0.97312689    -0.17500
C2168       C  0.56670023  0.00153022  0.50045285    -0.17500
H2169       H  0.95502645  0.08472171  0.53964242     0.15400
H2170       H  0.90379952  0.05953508  0.01407308     0.15400
H2171       H  0.58651456  0.44760782  0.42609062     0.15400
H2172       H  0.54883144  0.41822641  0.93870995     0.15400
H2173       H  0.54471654  0.09569005  0.50667504     0.13700
H2174       H  0.58349036  0.05749953  0.49046186     0.13700
H2175       H  0.91771445  0.44238038  0.01753363     0.13700
H2176       H  0.95613983  0.40678175  0.99611443     0.13700
H2177       H  0.98447478  0.01924489  0.02394813     0.27000
H2178       H  0.52017202  0.48201227  0.99549880     0.27000
N2179       N  0.97543749  0.02355282  0.23719238    -0.35800
N2180       N  0.53338992  0.02756502  0.26426552    -0.56400
N2181       N  0.52123995  0.47052801  0.26696842    -0.35800
N2182       N  0.96388844  0.46739443  0.25843074    -0.56400
C2183       C  0.98041479  0.04790350  0.22421926     0.27800
C2184       C  0.95096625  0.01517701  0.22691664     0.27800
C2185       C  0.54593683  0.47693626  0.27841006     0.27800
C2186       C  0.51499748  0.44550940  0.27773535     0.27800
C2187       C  0.52884915  0.05368197  0.25383398     0.36400
C2188       C  0.56124600  0.02392563  0.26852286     0.36400
C2189       C  0.93802456  0.47135762  0.24706336     0.36400
C2190       C  0.96897359  0.43948479  0.26115440     0.36400
C2191       C  0.95893065  0.05510822  0.20540617    -0.21100
C2192       C  0.94026265  0.03439121  0.20712437    -0.21100
C2193       C  0.55539583  0.45590023  0.29682942    -0.21100
C2194       C  0.53578908  0.43601382  0.29643041    -0.21100
C2195       C  0.55378817  0.06699738  0.25219620    -0.22100
C2196       C  0.57435699  0.04809571  0.26140155    -0.22100
C2197       C  0.92628260  0.44582906  0.24319626    -0.22100
C2198       C  0.94593722  0.42562082  0.25202328    -0.22100
C2199       C  0.00226763  0.06504331  0.23119508    -0.17500
C2200       C  0.93694183  0.99206692  0.23686518    -0.17500
C2201       C  0.99365238  0.42654127  0.27288489    -0.17500
C2202       C  0.57493093  0.99945476  0.27957129    -0.17500
H2203       H  0.95667041  0.07366114  0.19228748     0.15400
H2204       H  0.92076245  0.03381446  0.19555827     0.15400
H2205       H  0.57474044  0.45472178  0.30877494     0.15400
H2206       H  0.53701566  0.41646268  0.30801572     0.15400
H2207       H  0.55684001  0.08809724  0.24507071     0.13700
H2208       H  0.59642907  0.05177307  0.26275860     0.13700
H2209       H  0.90570142  0.44216868  0.23493735     0.13700
H2210       H  0.94345289  0.40331732  0.25198216     0.13700
H2211       H  0.98585681  0.01543056  0.25496941     0.27000
H2212       H  0.51157526  0.48034182  0.24959976     0.27000
Zr2213     Zr  0.96058978  0.21306570  0.48824518     2.17500
O2214       O  0.94579905  0.17961992  0.45300411    -0.50500
O2215       O  0.91863877  0.22392822  0.03052237    -0.73700
O2216       O  0.97082329  0.17261498  0.01398551    -0.80500
O2217       O  0.92149931  0.27277070  0.45146064    -0.82300
O2218       O  0.51498511  0.16618579  0.02826000    -0.77900
O2219       O  0.92008754  0.22588911  0.45857184    -0.89500
O2220       O  0.92385324  0.26353633  0.05603353    -0.75500
O2221       O  0.98081248  0.22844304  0.04142606    -0.85000
O2222       O  0.94939704  0.26833173  0.00619964    -0.84700
O2223       O  0.50582952  0.20025983  0.49173254    -0.71400
O2224       O  0.97622671  0.24614860  0.45378208    -0.83600
Zr2225     Zr  0.53801793  0.28838958  0.00511323     2.26400
Zr2226     Zr  0.53152043  0.21264028  0.02532457     2.06300
Zr2227     Zr  0.96356018  0.29093548  0.47320143     2.10000
Zr2228     Zr  0.97136704  0.27689400  0.05041276     1.78800
O2229       O  0.96196434  0.31092207  0.42559504    -0.92400
O2230       O  0.96734420  0.25481852  0.09667161    -0.40200
O2231       O  0.99013037  0.30303949  0.01221348    -0.76800
O2232       O  0.52049462  0.25908630  0.04178931    -0.95500
O2233       O  0.54940985  0.23372091  0.49412978    -0.88800
O2234       O  0.51935730  0.27092438  0.45599606    -0.91600
C2235       C  0.90955113  0.24325997  0.04781803     1.02100
C2236       C  0.90998045  0.24922311  0.44848439     1.15100
C2237       C  0.99244960  0.15999817  0.02523340     1.05800
O2238       O  0.53637699  0.19865422  0.07493941    -0.93800
O2239       O  0.57688806  0.22716493  0.04112131    -0.89500
O2240       O  0.57979497  0.27366443  0.03272975    -0.82700
C2241       C  0.58968592  0.25000088  0.04240560     1.12500
O2242       O  0.51082258  0.18668595  0.41879186    -0.95800
Zr2243     Zr  0.52653735  0.22165296  0.45171711     1.88900
O2244       O  0.58015002  0.27672753  0.46504130    -0.72400
O2245       O  0.56732547  0.17918316  0.00724315    -0.51700
O2246       O  0.55429759  0.17766113  0.45443170    -0.96300
O2247       O  0.52634831  0.23431637  0.40173342    -0.53600
O2248       O  0.57429691  0.23467970  0.44439613    -0.72900
C2249       C  0.58868121  0.25585287  0.44973872     0.99400
O2250       O  0.55204387  0.32444774  0.03794185    -0.61700
O2251       O  0.92420075  0.32136978  0.48902596    -0.56500
O2252       O  0.53132731  0.32925725  0.47987660    -0.93200
O2253       O  0.97719995  0.33840561  0.48097647    -0.91700
O2254       O  0.94396656  0.32075123  0.05593494    -0.92000
O2255       O  0.98980021  0.30703953  0.08670490    -0.90800
C2256       C  0.50976728  0.34126090  0.46792422     1.18300
H2257       H  0.92963843  0.27337886  0.00644593     0.34200
H2258       H  0.53018153  0.26225487  0.05937751     0.45100
H2259       H  0.52681843  0.28069611  0.43996496     0.38600
H2260       H  0.50832997  0.18047794  0.48822260     0.35100
H2261       H  0.95257321  0.26633397  0.10657419     0.26900
H2262       H  0.57213987  0.16674199  0.02352958     0.32800
H2263       H  0.56816886  0.18056947  0.46959916     0.38700
H2264       H  0.93498318  0.32404300  0.03720116     0.33200
H2265       H  0.91300943  0.32549864  0.47168963     0.32000
H2266       H  0.94903108  0.32765138  0.42720541     0.33700
H2267       H  0.53956986  0.24941733  0.40005363     0.32700
H2268       H  0.49722910  0.31078826  0.07712759     0.36700
H2269       H  0.53530215  0.33727860  0.04022746     0.29400
H2270       H  0.93512288  0.16586336  0.46364040     0.33700
H2271       H  0.49344903  0.18018834  0.42742852     0.36500
H2272       H  0.91735627  0.32195441  0.98382513     0.29100
H2273       H  0.55393311  0.31505009  0.05664527     0.42000
H2274       H  0.54351188  0.21506857  0.08475722     0.32000
H2275       H  0.95871041  0.23685274  0.09306957     0.39700
H2276       H  0.50764465  0.24367025  0.39886194     0.31500
H2277       H  0.56278430  0.16294688  0.52639618     0.31600
H2278       H  0.96313903  0.16919574  0.44679316     0.31800
Zr2279     Zr  0.53863669  0.28450867  0.24669056     2.17500
O2280       O  0.55898302  0.32001212  0.21706067    -0.50500
O2281       O  0.57702597  0.28312038  0.28252591    -0.73700
O2282       O  0.52415681  0.33230797  0.26113096    -0.80500
O2283       O  0.57667155  0.22546790  0.20741166    -0.82300
O2284       O  0.98055839  0.32909380  0.28230890    -0.77900
O2285       O  0.57940925  0.27165971  0.21735337    -0.89500
O2286       O  0.56730326  0.24888926  0.31399668    -0.75500
O2287       O  0.51176350  0.27975989  0.28899784    -0.85000
O2288       O  0.54754337  0.23749988  0.26182684    -0.84700
O2289       O  0.99044977  0.29123668  0.23664774    -0.71400
O2290       O  0.52277973  0.25555052  0.20847456    -0.83600
Zr2291     Zr  0.95833212  0.20794170  0.25348295     2.26400
Zr2292     Zr  0.96603625  0.28188523  0.28005671     2.06300
Zr2293     Zr  0.53227436  0.20876938  0.22457715     2.10000
Zr2294     Zr  0.52119302  0.23299909  0.30431992     1.78800
O2295       O  0.53415107  0.19152297  0.17593873    -0.92400
O2296       O  0.51465327  0.26097275  0.34708251    -0.40200
O2297       O  0.50639942  0.20273287  0.26755667    -0.76800
O2298       O  0.97490945  0.23411039  0.29300488    -0.95500
O2299       O  0.94878725  0.25561975  0.24156691    -0.88800
O2300       O  0.98299200  0.21613162  0.21038538    -0.91600
C2301       C  0.58347014  0.26686501  0.30378697     1.02100
C2302       C  0.58926153  0.24851376  0.20668684     1.15100
C2303       C  0.50156964  0.34500252  0.27032737     1.05800
O2304       O  0.96579918  0.29008638  0.33115000    -0.93800
O2305       O  0.92045821  0.26651154  0.29393802    -0.89500
O2306       O  0.91532414  0.22186243  0.27939451    -0.82700
C2307       C  0.90644846  0.24452056  0.29183762     1.12500
O2308       O  0.98858481  0.29727360  0.16381186    -0.95800
Zr2309     Zr  0.97304395  0.26375847  0.19871763     1.88900
O2310       O  0.92243100  0.20697255  0.21670818    -0.72400
O2311       O  0.92729637  0.31580877  0.27082907    -0.51700
O2312       O  0.94007642  0.30396082  0.19369079    -0.96300
O2313       O  0.98104414  0.24332272  0.15200579    -0.53600
O2314       O  0.92811404  0.24426493  0.18772062    -0.72900
C2315       C  0.91445744  0.22341596  0.19634078     0.99400
O2316       O  0.94193074  0.17109558  0.28434672    -0.61700
O2317       O  0.56969967  0.17516947  0.23889059    -0.56500
O2318       O  0.97158396  0.16104780  0.23699517    -0.93200
O2319       O  0.51788910  0.16169929  0.23016357    -0.91700
O2320       O  0.54953884  0.19168456  0.31862345    -0.92000
O2321       O  0.50119616  0.20489711  0.34157661    -0.90800
C2322       C  0.99367232  0.14907270  0.22608302     1.18300
H2323       H  0.56723351  0.23288441  0.26447870     0.34200
H2324       H  0.96459189  0.22985802  0.30997633     0.45100
H2325       H  0.97714315  0.20383607  0.19555874     0.38600
H2326       H  0.98703798  0.31047381  0.23095476     0.35100
H2327       H  0.52439284  0.27834525  0.34351146     0.26900
H2328       H  0.92573723  0.32757104  0.28808183     0.32800
H2329       H  0.92500854  0.30058719  0.20750425     0.38700
H2330       H  0.56533137  0.19065320  0.30500602     0.33200
H2331       H  0.57763609  0.16759792  0.22089052     0.32000
H2332       H  0.55045179  0.17793378  0.17554638     0.33700
H2333       H  0.97036679  0.22620761  0.15156189     0.32700
H2334       H  0.99204581  0.18371999  0.32731459     0.36700
H2335       H  0.95858361  0.15852307  0.28818454     0.29400
H2336       H  0.56906919  0.33199426  0.23026180     0.33700
H2337       H  0.97379465  0.29855794  0.14908708     0.36500
H2338       H  0.58457708  0.18636976  0.24690030     0.29100
H2339       H  0.93804063  0.18007543  0.30295449     0.42000
H2340       H  0.95359456  0.27599747  0.33916461     0.32000
H2341       H  0.49452994  0.26684429  0.34723824     0.39700
H2342       H  0.00092400  0.23659451  0.15198232     0.31500
H2343       H  0.93390758  0.32829582  0.25574118     0.31600
H2344       H  0.54299379  0.33196668  0.20990532     0.31800
Zr2345     Zr  0.71371214  0.46017064  0.00701773     2.17500
O2346       O  0.67898780  0.44492331  0.04077030    -0.50500
O2347       O  0.70923190  0.42300698  0.47358215    -0.73700
O2348       O  0.66506020  0.47157757  0.48426835    -0.80500
O2349       O  0.77263751  0.42106556  0.04550259    -0.82300
O2350       O  0.66168889  0.01883581  0.48156679    -0.77900
O2351       O  0.72677260  0.41780745  0.03399187    -0.89500
O2352       O  0.74704351  0.42681255  0.44479945    -0.75500
O2353       O  0.71987605  0.48264283  0.46277345    -0.85000
O2354       O  0.75794149  0.45047573  0.49760157    -0.84700
O2355       O  0.70258061  0.00943729  0.01606448    -0.71400
O2356       O  0.74322081  0.47683875  0.04411181    -0.83600
Zr2357     Zr  0.78553016  0.04037274  0.49267646     2.26400
Zr2358     Zr  0.70815278  0.03533181  0.47898127     2.06300
Zr2359     Zr  0.78957998  0.46498404  0.02797843     2.10000
Zr2360     Zr  0.76783290  0.47142315  0.45349344     1.78800
O2361       O  0.80478114  0.46241500  0.07729478    -0.92400
O2362       O  0.74957999  0.47435356  0.40552682    -0.40200
O2363       O  0.79378675  0.49112476  0.49117491    -0.76800
O2364       O  0.75291171  0.02477823  0.45801703    -0.95500
O2365       O  0.73877685  0.04972108  0.00718027    -0.88800
O2366       O  0.77929770  0.01573246  0.03734866    -0.91600
C2367       C  0.72585483  0.41393553  0.45386836     1.02100
C2368       C  0.74979952  0.40813727  0.04525576     1.15100
C2369       C  0.65430361  0.49129887  0.46868232     1.05800
O2370       O  0.68934084  0.04109056  0.43116244    -0.93800
O2371       O  0.72212397  0.08063993  0.46225137    -0.89500
O2372       O  0.76918321  0.08299662  0.46756704    -0.82700
C2373       C  0.74503627  0.09318874  0.45952487     1.12500
O2374       O  0.69836127  0.01457608  0.08694965    -0.95800
Zr2375     Zr  0.73253930  0.02745766  0.05146249     1.88900
O2376       O  0.78788956  0.07718281  0.02603154    -0.72400
O2377       O  0.67650107  0.07184834  0.49874094    -0.51700
O2378       O  0.69355767  0.06176719  0.05713485    -0.96300
O2379       O  0.75437130  0.02109328  0.09776815    -0.53600
O2380       O  0.75353669  0.07223579  0.05874454    -0.72900
C2381       C  0.77319698  0.08587138  0.04746874     0.99400
O2382       O  0.81839320  0.05430648  0.45619322    -0.61700
O2383       O  0.82292280  0.42748564  0.01354860    -0.56500
O2384       O  0.83218883  0.02644357  0.00967180    -0.93200
O2385       O  0.83694891  0.47904794  0.02662619    -0.91700
O2386       O  0.80797006  0.43802530  0.45246436    -0.92000
O2387       O  0.80345371  0.48358681  0.41928139    -0.90800
C2388       C  0.84454068  0.00487074  0.02110471     1.18300
H2389       H  0.76220150  0.43062648  0.49655314     0.34200
H2390       H  0.75455862  0.03517023  0.44053875     0.45100
H2391       H  0.79253938  0.02202183  0.05105483     0.38600
H2392       H  0.68355835  0.01329220  0.02243504     0.35100
H2393       H  0.75880826  0.45803722  0.39581864     0.26900
H2394       H  0.66259232  0.07619465  0.48358818     0.32800
H2395       H  0.69739818  0.07685750  0.04350913     0.38700
H2396       H  0.82247104  0.44673684  0.46394760     0.33200
H2397       H  0.82772886  0.41714374  0.03126630     0.32000
H2398       H  0.81692071  0.44508612  0.07845554     0.33700
H2399       H  0.77356223  0.02757655  0.09582280     0.32700
H2400       H  0.79459386  0.00836537  0.41453326     0.36700
H2401       H  0.83014832  0.03723351  0.45185422     0.29400
H2402       H  0.66658931  0.43318878  0.02962610     0.33700
H2403       H  0.69965725  0.02835437  0.10247167     0.36500
H2404       H  0.81322236  0.41966567  0.51908629     0.29100
H2405       H  0.80703629  0.05738274  0.43878129     0.42000
H2406       H  0.67441728  0.05609369  0.43290457     0.32000
H2407       H  0.72977719  0.46959302  0.40729002     0.39700
H2408       H  0.75683748  0.00062415  0.10029330     0.31500
H2409       H  0.66432006  0.06290964  0.99801165     0.31600
H2410       H  0.66729759  0.46193077  0.04548409     0.31800
Zr2411     Zr  0.79522584  0.03584742  0.25787077     2.17500
O2412       O  0.83272110  0.05164600  0.28797841    -0.50500
O2413       O  0.79769286  0.07543772  0.22443329    -0.73700
O2414       O  0.84160494  0.01961990  0.24185014    -0.80500
O2415       O  0.74077525  0.07628680  0.30175831    -0.82300
O2416       O  0.82775018  0.48434700  0.22201336    -0.77900
O2417       O  0.78695866  0.07478027  0.29002803    -0.89500
O2418       O  0.75993642  0.07374324  0.19543929    -0.75500
O2419       O  0.78617508  0.01503167  0.21313426    -0.85000
O2420       O  0.74818394  0.05014129  0.24663815    -0.84700
O2421       O  0.78816802  0.49393002  0.26594317    -0.71400
O2422       O  0.76737450  0.01892232  0.29637448    -0.83600
Zr2423     Zr  0.70573815  0.46065630  0.24684806     2.26400
Zr2424     Zr  0.78051621  0.46913265  0.22246770     2.06300
Zr2425     Zr  0.72037078  0.03333418  0.28416197     2.10000
Zr2426     Zr  0.73906278  0.02915103  0.20220244     1.78800
O2427       O  0.71125631  0.03324209  0.33505493    -0.92400
O2428       O  0.76332814  0.02564734  0.15688830    -0.40200
O2429       O  0.70983873  0.01237609  0.23929121    -0.76800
O2430       O  0.73297883  0.47755622  0.20823704    -0.95500
O2431       O  0.75321349  0.45172558  0.26022354    -0.88800
O2432       O  0.71247726  0.48553530  0.29010494    -0.91600
C2433       C  0.78121031  0.08592874  0.20506519     1.02100
C2434       C  0.76527715  0.08639278  0.30193770     1.15100
C2435       C  0.85254522  0.99729372  0.23059539     1.05800
O2436       O  0.79066499  0.46890536  0.17175322    -0.93800
O2437       O  0.76602289  0.42320660  0.20800816    -0.89500
O2438       O  0.72070032  0.41792527  0.22059164    -0.82700
C2439       C  0.74391679  0.40911794  0.20894468     1.12500
O2440       O  0.79210920  0.49320046  0.33849893    -0.95800
Zr2441     Zr  0.75992180  0.47637646  0.30304450     1.88900
O2442       O  0.70362557  0.42534423  0.28391420    -0.72400
O2443       O  0.81469513  0.43100831  0.23331405    -0.51700
O2444       O  0.80124964  0.44489844  0.30848164    -0.96300
O2445       O  0.73830443  0.48236590  0.34951204    -0.53600
O2446       O  0.74129437  0.43095578  0.31241752    -0.72900
C2447       C  0.72047170  0.41732002  0.30386675     0.99400
O2448       O  0.67000141  0.44378767  0.21498130    -0.61700
O2449       O  0.68646713  0.07186545  0.27427663    -0.56500
O2450       O  0.65838210  0.47361380  0.26244893    -0.93200
O2451       O  0.67262111  0.01896794  0.28716716    -0.91700
O2452       O  0.70072293  0.06365403  0.19403409    -0.92000
O2453       O  0.70578717  0.01717901  0.16563174    -0.90800
C2454       C  0.64582939  0.49536504  0.27334033     1.18300
H2455       H  0.74538962  0.07021229  0.24582766     0.34200
H2456       H  0.72938526  0.46725563  0.19113396     0.45100
H2457       H  0.69984350  0.47948935  0.30458597     0.38600
H2458       H  0.80714340  0.49062276  0.27252370     0.35100
H2459       H  0.75631048  0.04270040  0.14672451     0.26900
H2460       H  0.82691768  0.42926257  0.21635828     0.32800
H2461       H  0.79679425  0.42780839  0.29801340     0.38700
H2462       H  0.70001853  0.07524168  0.21142159     0.33200
H2463       H  0.68041289  0.07880376  0.29321999     0.32000
H2464       H  0.69361947  0.04475057  0.33735054     0.33700
H2465       H  0.72015670  0.47345711  0.34858656     0.32700
H2466       H  0.68369180  0.49254731  0.17326682     0.36700
H2467       H  0.65682247  0.46002981  0.21143402     0.29400
H2468       H  0.84593293  0.06068855  0.27513156     0.33700
H2469       H  0.79417794  0.47820867  0.35296987     0.36500
H2470       H  0.69751481  0.08692451  0.26632811     0.29100
H2471       H  0.67938936  0.44081312  0.19639860     0.42000
H2472       H  0.77646616  0.45720467  0.16320749     0.32000
H2473       H  0.78311375  0.02914935  0.16099944     0.39700
H2474       H  0.73342761  0.50261287  0.35106010     0.31500
H2475       H  0.82675695  0.43800348  0.24853151     0.31600
H2476       H  0.84293853  0.03444662  0.29486434     0.31800
O2477       O  0.82296093  0.25158143  0.07238546    -0.74500
O2478       O  0.82801264  0.20900241  0.09425109    -0.53400
C2479       C  0.83662206  0.22812565  0.07765711     0.79200
O2480       O  0.75321948  0.32378252  0.17816163    -0.59100
O2481       O  0.71155372  0.32993808  0.15489833    -0.52100
C2482       C  0.73042244  0.33820232  0.17202122     0.71300
O2483       O  0.82572276  0.26108181  0.16855346    -0.73600
O2484       O  0.83187257  0.21588881  0.15363198    -0.54200
C2485       C  0.84086178  0.23844635  0.16455852     0.77300
O2486       O  0.75596022  0.32207951  0.07180730    -0.58800
O2487       O  0.71287647  0.32805851  0.09255401    -0.51900
C2488       C  0.73280463  0.33631931  0.07669236     0.73900
Zr2489     Zr  0.77757723  0.27585635  0.08330374     2.54700
O2490       O  0.81361660  0.30956756  0.07908919    -0.79400
O2491       O  0.77295312  0.27223509  0.03204696    -0.92800
Zr2492     Zr  0.77663976  0.27767977  0.16772901     2.64700
O2493       O  0.80982627  0.31162767  0.18269711    -0.97700
O2494       O  0.77340984  0.26652786  0.21798936    -0.79800
O2495       O  0.79653212  0.25714248  0.12604636    -0.83100
O2496       O  0.75807866  0.29705436  0.12500439    -2.17900
O2497       O  0.67445980  0.24251474  0.07324501    -0.66500
O2498       O  0.66849302  0.28525295  0.09425451    -0.51100
C2499       C  0.66014930  0.26555715  0.07829576     0.72200
O2500       O  0.74111173  0.17427348  0.17656817    -0.59400
O2501       O  0.78546412  0.16797083  0.15906291    -0.51400
C2502       C  0.76413650  0.15959136  0.17288641     0.74000
O2503       O  0.67454663  0.24358443  0.17882057    -0.70800
O2504       O  0.66825475  0.28546713  0.15588536    -0.49500
C2505       C  0.65997732  0.26614653  0.17256050     0.75400
O2506       O  0.73888125  0.17160520  0.08116622    -0.66200
O2507       O  0.78326952  0.16578457  0.09873497    -0.53400
C2508       C  0.76160394  0.15681130  0.08600325     0.73800
Zr2509     Zr  0.72070550  0.22009233  0.08408122     2.77500
O2510       O  0.68753376  0.18545633  0.07100817    -0.96900
O2511       O  0.73130471  0.22436065  0.03374323    -0.77700
Zr2512     Zr  0.72058701  0.22136509  0.16849031     2.70100
O2513       O  0.68500260  0.18764649  0.17572802    -0.79000
O2514       O  0.72606168  0.22520534  0.21959436    -0.98100
Zr2515     Zr  0.78869088  0.20827728  0.12700253     2.21500
Zr2516     Zr  0.70919506  0.28853810  0.12496488     2.11100
O2517       O  0.70054602  0.23981007  0.12589500    -2.46800
O2518       O  0.73977338  0.20083880  0.12675187    -0.78800
O2519       O  0.72887237  0.26841755  0.08243770    -0.71000
O2520       O  0.76927713  0.22892748  0.16965860    -2.31900
O2521       O  0.76935229  0.22733909  0.08357838    -2.28100
O2522       O  0.72818180  0.26991400  0.16845144    -0.72700
H2523       H  0.76113308  0.31679117  0.12477031     0.79300
H2524       H  0.77800825  0.22039227  0.18627268     0.80400
H2525       H  0.68077274  0.23678539  0.12594819     0.82600
H2526       H  0.77796361  0.21817385  0.06729172     0.80200
H2527       H  0.79262668  0.25984808  0.22332245     0.43200
H2528       H  0.71937132  0.24464340  0.22380624     0.42200
H2529       H  0.67624953  0.18583277  0.15680849     0.41900
H2530       H  0.67171501  0.18833325  0.08443926     0.39800
H2531       H  0.72010922  0.24122519  0.02752598     0.42900
H2532       H  0.78902732  0.28209378  0.02446902     0.37700
H2533       H  0.81496813  0.31759483  0.09837395     0.43800
H2534       H  0.80717390  0.32747853  0.16926415     0.40300
H2535       H  0.67993843  0.19158203  0.05231625     0.45200
H2536       H  0.75639371  0.28461485  0.02728765     0.43900
H2537       H  0.80274932  0.31893387  0.20114985     0.44000
H2538       H  0.71138335  0.21359766  0.22745579     0.44400
O2539       O  0.82159445  0.25394849  0.32040926    -0.74500
O2540       O  0.82481090  0.21016063  0.33969991    -0.53400
C2541       C  0.83444142  0.22995712  0.32458746     0.79200
O2542       O  0.76228636  0.32414783  0.42653768    -0.59100
O2543       O  0.71892188  0.33434315  0.40791348    -0.52100
C2544       C  0.74058972  0.34058477  0.42241327     0.71300
O2545       O  0.82579145  0.25444269  0.42074495    -0.73600
O2546       O  0.82850524  0.21148875  0.39988389    -0.54200
C2547       C  0.83901152  0.23123450  0.41456296     0.77300
O2548       O  0.75899748  0.32661702  0.32404924    -0.58800
O2549       O  0.71770692  0.33629312  0.34736552    -0.51900
C2550       C  0.73797538  0.34302065  0.33106721     0.73900
Zr2551     Zr  0.77673903  0.27845013  0.33129946     2.54700
O2552       O  0.81413525  0.30996963  0.32307230    -0.79400
O2553       O  0.76935361  0.27554812  0.28032384    -0.92800
Zr2554     Zr  0.77940157  0.27664319  0.41555738     2.64700
O2555       O  0.81772652  0.30708411  0.42443075    -0.97700
O2556       O  0.77321740  0.26871703  0.46612918    -0.79800
O2557       O  0.79639895  0.25688979  0.37240891    -0.83100
O2558       O  0.76068386  0.29886056  0.37450630    -2.17900
O2559       O  0.67104848  0.25478129  0.32352547    -0.66500
O2560       O  0.66969684  0.29710837  0.34569039    -0.51100
C2561       C  0.65909479  0.27885478  0.32937543     0.72200
O2562       O  0.73840527  0.17725192  0.42636579    -0.59400
O2563       O  0.78007695  0.16914469  0.40337303    -0.51400
C2564       C  0.76056235  0.16188797  0.42033250     0.74000
O2565       O  0.67522691  0.24955208  0.42923099    -0.70800
O2566       O  0.67087455  0.29262069  0.40819656    -0.49500
C2567       C  0.66186996  0.27304499  0.42403828     0.75400
O2568       O  0.73088250  0.17960129  0.32366312    -0.66200
O2569       O  0.77384852  0.16830393  0.34294176    -0.53400
C2570       C  0.75187905  0.16241386  0.32853318     0.73800
Zr2571     Zr  0.71548862  0.22798152  0.33244859     2.77500
O2572       O  0.67751906  0.19704685  0.32407904    -0.96900
O2573       O  0.72109020  0.23402681  0.28159667    -0.77700
Zr2574     Zr  0.71910331  0.22470321  0.41649765     2.70100
O2575       O  0.68154212  0.19246016  0.41801461    -0.79000
O2576       O  0.72311589  0.22560150  0.46798149    -0.98100
Zr2577     Zr  0.78483829  0.20915688  0.37187346     2.21500
Zr2578     Zr  0.71109574  0.29484477  0.37645103     2.11100
O2579       O  0.69881053  0.24707006  0.37580021    -2.46800
O2580       O  0.73531273  0.20521812  0.37314896    -0.78800
O2581       O  0.72741207  0.27528171  0.33232500    -0.71000
O2582       O  0.76834383  0.22900221  0.41582663    -2.31900
O2583       O  0.76491076  0.23102610  0.32996179    -2.28100
O2584       O  0.73037001  0.27246696  0.41817071    -0.72700
H2585       H  0.76569594  0.31806646  0.37485704     0.79300
H2586       H  0.77713845  0.21943971  0.43187121     0.80400
H2587       H  0.67877720  0.24560128  0.37624730     0.82600
H2588       H  0.77224283  0.22199884  0.31295772     0.80200
H2589       H  0.79238305  0.26414964  0.47320842     0.43200
H2590       H  0.70727893  0.21490404  0.47479190     0.42200
H2591       H  0.67275737  0.19410621  0.39899752     0.41900
H2592       H  0.66261460  0.20304152  0.33769989     0.39800
H2593       H  0.70847834  0.25042626  0.27691441     0.42900
H2594       H  0.78193275  0.28928174  0.27227124     0.37700
H2595       H  0.81985912  0.31559884  0.34235155     0.43800
H2596       H  0.81420199  0.32350965  0.41188031     0.40100
H2597       H  0.66993348  0.20244460  0.30516660     0.45200
H2598       H  0.75032342  0.28413124  0.27727450     0.43900
H2599       H  0.81467612  0.31425972  0.44395378     0.44000
H2600       H  0.73993261  0.21340006  0.47224460     0.44400
C2601       C  0.78596078  0.11442052  0.19359927    -0.15600
C2602       C  0.76389743  0.13062813  0.18419960    -0.30800
H2603       H  0.80667911  0.12257315  0.19438577     0.13400
H2604       H  0.74317415  0.12254695  0.18612205     0.14000
C2605       C  0.72552547  0.36633613  0.18549465    -0.15600
C2606       C  0.74672414  0.38059811  0.19621013    -0.30800
H2607       H  0.70446763  0.37597167  0.18542554     0.13400
H2608       H  0.76790516  0.37148124  0.19423653     0.14000
C2609       C  0.76931598  0.11356264  0.31620279    -0.15600
C2610       C  0.74899184  0.13395658  0.31668888    -0.30800
H2611       H  0.79000983  0.11773663  0.32407433     0.13400
H2612       H  0.72897872  0.12988109  0.30703920     0.14000
C2613       C  0.71658289  0.38972625  0.31691244    -0.15600
C2614       C  0.73890982  0.37188065  0.32027262    -0.30800
H2615       H  0.69562367  0.38306373  0.32103704     0.13400
H2616       H  0.75928040  0.37839942  0.31341475     0.14000
C2617       C  0.74262807  0.12143851  0.44647403    -0.15600
C2618       C  0.76407646  0.13384947  0.43392848    -0.30800
H2619       H  0.72193091  0.13190836  0.44613695     0.13400
H2620       H  0.78444259  0.12278816  0.43272401     0.14000
C2621       C  0.74261377  0.36899391  0.43407656    -0.15600
C2622       C  0.72082692  0.38628220  0.44138602    -0.30800
H2623       H  0.76366572  0.37564504  0.43787255     0.13400
H2624       H  0.69964675  0.37928222  0.44023391     0.14000
C2625       C  0.76090431  0.12700887  0.07776179    -0.15600
C2626       C  0.77873108  0.11398031  0.05928792    -0.30800
H2627       H  0.74236825  0.11655864  0.08432906     0.13400
H2628       H  0.79613974  0.12508072  0.05086308     0.14000
C2629       C  0.75132077  0.37985030  0.05821478    -0.15600
C2630       C  0.72910099  0.36453171  0.06362132    -0.30800
H2631       H  0.77206451  0.37129114  0.06388247     0.13400
H2632       H  0.70805100  0.37331025  0.05979150     0.14000
C2633       C  0.63142860  0.26964547  0.18510470    -0.15600
C2634       C  0.61748991  0.24724970  0.19346695    -0.30800
H2635       H  0.62140149  0.29045585  0.18644310     0.13400
H2636       H  0.62720655  0.22649328  0.19024727     0.14000
C2637       C  0.87064174  0.24003700  0.17291959    -0.15600
C2638       C  0.88699431  0.21851454  0.18287218    -0.30800
H2639       H  0.87847648  0.26088888  0.17394077     0.13400
H2640       H  0.87867906  0.19792509  0.18442312     0.14000
C2641       C  0.61204675  0.26536758  0.31643499    -0.15600
C2642       C  0.63080548  0.28534071  0.31680660    -0.30800
H2643       H  0.61804817  0.24559897  0.32671732     0.13400
H2644       H  0.62514792  0.30621390  0.30904528     0.14000
C2645       C  0.87796370  0.24679553  0.30427403    -0.15600
C2646       C  0.86251379  0.22510583  0.31131053    -0.30800
H2647       H  0.86972088  0.26784933  0.30894266     0.13400
H2648       H  0.87107174  0.20384281  0.30863698     0.14000
C2649       C  0.61728333  0.25483941  0.43803844    -0.15600
C2650       C  0.63344741  0.27689780  0.43614325    -0.30800
H2651       H  0.62536729  0.23466237  0.43020412     0.13400
H2652       H  0.62520711  0.29769506  0.44174340     0.14000
C2653       C  0.86823547  0.22755276  0.42576523    -0.15600
C2654       C  0.88259013  0.25006267  0.43337087    -0.30800
H2655       H  0.87762039  0.20659960  0.42844261     0.13400
H2656       H  0.87326012  0.27080741  0.42910580     0.14000
C2657       C  0.61796873  0.24780265  0.05548995    -0.15600
C2658       C  0.63195444  0.26960573  0.06502653    -0.30800
H2659       H  0.62739293  0.22683176  0.05812366     0.13400
H2660       H  0.62213236  0.29053599  0.06412420     0.14000
C2661       C  0.88021902  0.24482499  0.05800280    -0.15600
C2662       C  0.86469115  0.22312450  0.06433015    -0.30800
H2663       H  0.87163473  0.26574125  0.06278479     0.13400
H2664       H  0.87357726  0.20192035  0.06219488     0.14000
C2665       C  0.59114003  0.49762128  0.27497349    -0.12500
C2666       C  0.61620181  0.49561194  0.27590104    -0.14000
C2667       C  0.88228709  0.99438066  0.22950602    -0.12500
C2668       C  0.90727504  0.99209389  0.23177827    -0.14000
C2669       C  0.49631716  0.39978815  0.27143708    -0.12500
C2670       C  0.50031963  0.37479943  0.27207526    -0.14000
C2671       C  0.99821116  0.09447058  0.22517024    -0.12500
C2672       C  0.99478677  0.11941626  0.22354841    -0.14000
C2673       C  0.62568008  0.49018749  0.46126813    -0.12500
C2674       C  0.60078865  0.49209372  0.45867021    -0.14000
C2675       C  0.89901341  0.00459472  0.02424016    -0.12500
C2676       C  0.87398790  0.00509523  0.02440193    -0.14000
C2677       C  0.50568989  0.39568525  0.46250921    -0.12500
C2678       C  0.50916825  0.37073234  0.46381079    -0.14000
C2679       C  0.99353979  0.13007983  0.02617460    -0.12500
C2680       C  0.99594642  0.10505036  0.02362753    -0.14000
N2681       N  0.97156622  0.02785622  0.50317034    -0.35800
N2682       N  0.52674789  0.03080560  0.99760197    -0.56400
N2683       N  0.53026374  0.46665950  0.46261478    -0.35800
N2684       N  0.96692215  0.47421003  0.51575246    -0.56400
C2685       C  0.97169658  0.06203786  0.01670842     0.27800
C2686       C  0.94653875  0.02239483  0.51442316     0.27800
C2687       C  0.55592266  0.47876290  0.96870436     0.27800
C2688       C  0.52469537  0.44085005  0.45368964     0.27800
C2689       C  0.52335072  0.05611284  0.00996994     0.36400
C2690       C  0.55455651  0.02535897  0.99486617     0.36400
C2691       C  0.94069280  0.47767426  0.52603378     0.36400
C2692       C  0.97205899  0.44648161  0.51248033     0.36400
C2693       C  0.94559635  0.07585988  0.01458481    -0.21100
C2694       C  0.93668630  0.04477064  0.53091915    -0.21100
C2695       C  0.56643023  0.45776395  0.95080447    -0.21100
C2696       C  0.54661457  0.42997999  0.43711559    -0.21100
C2697       C  0.54913488  0.06712391  0.01469538    -0.22100
C2698       C  0.56899381  0.04755104  0.00512411    -0.22100
C2699       C  0.92889364  0.45204968  0.52905752    -0.22100
C2700       C  0.94886047  0.43221267  0.52053713    -0.22100
C2701       C  0.99720231  0.07527645  0.01820534    -0.17500
C2702       C  0.93118318  0.99909782  0.50780168    -0.17500
C2703       C  0.99657190  0.43419171  0.50026839    -0.17500
C2704       C  0.56673057  0.00116911  0.98193755    -0.17500
H2705       H  0.94094348  0.09813644  0.01287219     0.15400
H2706       H  0.91699515  0.04695540  0.54222708     0.15400
H2707       H  0.58650644  0.45651146  0.94015608     0.15400
H2708       H  0.54871967  0.40944637  0.42760116     0.15400
H2709       H  0.55315637  0.08723452  0.02378157     0.13700
H2710       H  0.59141218  0.04953468  0.00542118     0.13700
H2711       H  0.90791354  0.44813147  0.53605842     0.13700
H2712       H  0.94635211  0.40992948  0.51974130     0.13700
H2713       H  0.98167213  0.01656661  0.48704888     0.27000
H2714       H  0.51975249  0.47763703  0.47868700     0.27000
N2715       N  0.96348480  0.03382933  0.71621279    -0.35800
N2716       N  0.52849728  0.02700826  0.76620429    -0.56400
N2717       N  0.53735822  0.46716660  0.76414333    -0.35800
N2718       N  0.98078628  0.46535610  0.76082539    -0.56400
C2719       C  0.96769875  0.06118483  0.71960923     0.27800
C2720       C  0.93564119  0.03102936  0.71816999     0.27800
C2721       C  0.56271738  0.47385555  0.77392631     0.27800
C2722       C  0.53236911  0.44151899  0.77435389     0.27800
C2723       C  0.52496042  0.05212341  0.75337893     0.36400
C2724       C  0.55635360  0.02131185  0.76817977     0.36400
C2725       C  0.95321389  0.46876866  0.75485500     0.36400
C2726       C  0.98460172  0.44041749  0.77400309     0.36400
C2727       C  0.94226425  0.07597125  0.72358154    -0.21100
C2728       C  0.92198506  0.05688959  0.72265400    -0.21100
C2729       C  0.57404166  0.45215798  0.79051799    -0.21100
C2730       C  0.55487377  0.43177091  0.79083431    -0.21100
C2731       C  0.55071649  0.06285788  0.74770943    -0.22100
C2732       C  0.57067760  0.04326070  0.75709699    -0.22100
C2733       C  0.93940025  0.44570388  0.76405162    -0.22100
C2734       C  0.95931831  0.42770685  0.77620558    -0.22100
C2735       C  0.99364645  0.07337381  0.71752198    -0.17500
C2736       C  0.92220664  0.00599991  0.71430499    -0.17500
C2737       C  0.01098869  0.42783226  0.78110045    -0.17500
C2738       C  0.56876122  0.99698542  0.78083911    -0.17500
H2739       H  0.93863607  0.09823835  0.72661858     0.15400
H2740       H  0.89972204  0.06157261  0.72487810     0.15400
H2741       H  0.59420546  0.45095944  0.80097121     0.15400
H2742       H  0.55748022  0.41178900  0.80151801     0.15400
H2743       H  0.55467400  0.08279300  0.73808945     0.13700
H2744       H  0.59310240  0.04503441  0.75604430     0.13700
H2745       H  0.91737161  0.44208451  0.76192770     0.13700
H2746       H  0.95571391  0.40737501  0.78511474     0.13700
H2747       H  0.97832948  0.01859597  0.70960030     0.27000
H2748       H  0.52588651  0.47783432  0.74848620     0.27000
Zr2749     Zr  0.95877882  0.21998514  0.99699337     2.17500
O2750       O  0.93903919  0.18368677  0.96813957    -0.50500
O2751       O  0.92210670  0.20757767  0.52240218    -0.73700
O2752       O  0.97509645  0.16518023  0.50075425    -0.80500
O2753       O  0.92394959  0.27622177  0.95108799    -0.82300
O2754       O  0.51120951  0.16748384  0.53946746    -0.77900
O2755       O  0.91980617  0.23116808  0.96500112    -0.89500
O2756       O  0.92765063  0.23911202  0.55765397    -0.75500
O2757       O  0.98480087  0.21553260  0.53237506    -0.85000
O2758       O  0.94805354  0.25805585  0.50685120    -0.84700
O2759       O  0.50835085  0.20597885  0.98084761    -0.71400
O2760       O  0.97865628  0.24453211  0.95745223    -0.83600
Zr2761     Zr  0.54217018  0.28284599  0.49926417     2.26400
Zr2762     Zr  0.52879520  0.21357494  0.53488490     2.06300
Zr2763     Zr  0.96862664  0.29273922  0.96763314     2.10000
Zr2764     Zr  0.97196541  0.26031246  0.55099991     1.78800
O2765       O  0.96837085  0.30006280  0.91641342    -0.92400
O2766       O  0.97789615  0.23061142  0.59282640    -0.40200
O2767       O  0.98718358  0.29421486  0.51786452    -0.76800
O2768       O  0.52233666  0.26292847  0.54128235    -0.95500
O2769       O  0.54928670  0.24212175  0.98969212    -0.88800
O2770       O  0.51474989  0.28294026  0.96077879    -0.91600
C2771       C  0.91373384  0.22066392  0.54501327     1.02100
C2772       C  0.91086001  0.25347645  0.95202369     1.15100
C2773       C  0.99735112  0.15242713  0.51043895     1.05800
O2774       O  0.52363942  0.21489185  0.58634268    -0.93800
O2775       O  0.57679253  0.22582223  0.54449538    -0.89500
O2776       O  0.58225177  0.27034669  0.52982082    -0.82700
C2777       C  0.59102094  0.24771740  0.54233950     1.12500
O2778       O  0.51139664  0.20665706  0.90744515    -0.95800
Zr2779     Zr  0.52628188  0.23666160  0.94569848     1.88900
O2780       O  0.57684900  0.29057108  0.97178000    -0.72400
O2781       O  0.56567423  0.17696817  0.54137868    -0.51700
O2782       O  0.55737074  0.19546406  0.93820729    -0.96300
O2783       O  0.52170327  0.26200217  0.90091260    -0.53600
O2784       O  0.57226231  0.25604511  0.93937020    -0.72900
C2785       C  0.58579740  0.27576174  0.95063473     0.99400
O2786       O  0.56187311  0.32307593  0.52200977    -0.61700
O2787       O  0.93343948  0.33071272  0.97487884    -0.56500
O2788       O  0.52655066  0.33517171  0.98723657    -0.93200
O2789       O  0.98641683  0.33870921  0.96405107    -0.91700
O2790       O  0.93869246  0.29839448  0.56386692    -0.92000
O2791       O  0.98739870  0.28813868  0.59063881    -0.90800
C2792       C  0.50516018  0.34770017  0.97554139     1.18300
H2793       H  0.92805208  0.26094816  0.50898286     0.34200
H2794       H  0.53211562  0.26867506  0.55805956     0.45100
H2795       H  0.52090497  0.29629349  0.94706635     0.38600
H2796       H  0.51187470  0.18702443  0.97429365     0.35100
H2797       H  0.97089867  0.21235619  0.58722185     0.26900
H2798       H  0.56135543  0.16756043  0.55949497     0.32800
H2799       H  0.57422521  0.19886584  0.94959917     0.38700
H2800       H  0.92139288  0.29474103  0.55328885     0.33200
H2801       H  0.92683979  0.33597374  0.95556096     0.32000
H2802       H  0.95437112  0.31570300  0.91323926     0.33700
H2803       H  0.53360021  0.27819082  0.90256002     0.32700
H2804       H  0.50316491  0.32103506  0.56548994     0.36700
H2805       H  0.56130177  0.31925696  0.54268657     0.29400
H2806       H  0.92834852  0.17220769  0.98137655     0.33700
H2807       H  0.52654991  0.20673135  0.89312325     0.36500
H2808       H  0.91245133  0.30936004  0.50063818     0.29100
H2809       H  0.58200229  0.32214047  0.51698902     0.42000
H2810       H  0.54258658  0.21827786  0.59355219     0.32000
H2811       H  0.99837956  0.22709226  0.59466000     0.39700
H2812       H  0.50228520  0.27014869  0.90072117     0.31500
H2813       H  0.55764025  0.16726874  0.99365240     0.31600
H2814       H  0.95513912  0.17138973  0.96188478     0.31800
Zr2815     Zr  0.54275181  0.28028975  0.74467268     2.17500
O2816       O  0.56247612  0.31519519  0.71382614    -0.50500
O2817       O  0.58281112  0.27634812  0.77829566    -0.73700
O2818       O  0.53277326  0.32782880  0.76173634    -0.80500
O2819       O  0.57539365  0.22243390  0.70007884    -0.82300
O2820       O  0.98973005  0.33257403  0.78963466    -0.77900
O2821       O  0.58150390  0.26726376  0.71329397    -0.89500
O2822       O  0.57634826  0.23781782  0.80525430    -0.75500
O2823       O  0.51977351  0.27385053  0.78894284    -0.85000
O2824       O  0.55082212  0.23210242  0.75551555    -0.84700
O2825       O  0.99234360  0.29818464  0.73914340    -0.71400
O2826       O  0.52217366  0.25513968  0.70608592    -0.83600
Zr2827     Zr  0.95880695  0.21533314  0.75363761     2.26400
Zr2828     Zr  0.97070250  0.28729898  0.78343174     2.06300
Zr2829     Zr  0.53054365  0.20712588  0.71803830     2.10000
Zr2830     Zr  0.52823657  0.22574443  0.79988887     1.78800
O2831       O  0.52417538  0.19500964  0.66831759    -0.92400
O2832       O  0.53129519  0.25031050  0.84475785    -0.40200
O2833       O  0.50821125  0.19956111  0.76279265    -0.76800
O2834       O  0.97907251  0.23857795  0.79322115    -0.95500
O2835       O  0.94948905  0.26379538  0.74505990    -0.88800
O2836       O  0.97998644  0.22549993  0.70915573    -0.91600
C2837       C  0.59126363  0.25750703  0.79649103     1.02100
C2838       C  0.58945345  0.24457320  0.70056888     1.15100
C2839       C  0.51211703  0.34120585  0.77388328     1.05800
O2840       O  0.97093188  0.29648916  0.83432689    -0.93800
O2841       O  0.92621148  0.27254499  0.80105550    -0.89500
O2842       O  0.91946836  0.22865614  0.78497438    -0.82700
C2843       C  0.91193100  0.25072011  0.79917264     1.12500
O2844       O  0.98225142  0.31385093  0.67178073    -0.95800
Zr2845     Zr  0.97085760  0.27392244  0.70100261     1.88900
O2846       O  0.92201990  0.21508296  0.71830343    -0.72400
O2847       O  0.93441553  0.32329717  0.77245182    -0.51700
O2848       O  0.93543116  0.31229684  0.70174743    -0.96300
O2849       O  0.97832571  0.26005841  0.65165125    -0.53600
O2850       O  0.92727324  0.25209158  0.68884419    -0.72900
C2851       C  0.91409176  0.23092212  0.69755478     0.99400
O2852       O  0.93910334  0.17825359  0.78166078    -0.61700
O2853       O  0.56690476  0.16965650  0.72131985    -0.56500
O2854       O  0.97113958  0.16898543  0.73497969    -0.93200
O2855       O  0.51614411  0.16047069  0.72610026    -0.91700
O2856       O  0.55352644  0.18079581  0.80674834    -0.92000
O2857       O  0.51000022  0.19787203  0.83829847    -0.90800
C2858       C  0.99149842  0.15722750  0.72095704     1.18300
H2859       H  0.57047508  0.22646260  0.75595630     0.34200
H2860       H  0.96992024  0.23364970  0.81068702     0.45100
H2861       H  0.97270794  0.21432172  0.69411431     0.38600
H2862       H  0.98974475  0.31794037  0.73522040     0.35100
H2863       H  0.54766111  0.24102001  0.85441175     0.26900
H2864       H  0.93337495  0.33551862  0.78938333     0.32800
H2865       H  0.91967039  0.30510820  0.71270582     0.38700
H2866       H  0.55320746  0.17163772  0.78792616     0.33200
H2867       H  0.57566301  0.16843694  0.70226425     0.32000
H2868       H  0.53639047  0.20741415  0.65771190     0.33700
H2869       H  0.97374329  0.24019749  0.65082136     0.32700
H2870       H  0.99582668  0.18386135  0.81973120     0.36700
H2871       H  0.92913597  0.16665426  0.76798867     0.29400
H2872       H  0.57344191  0.32706924  0.72634701     0.33700
H2873       H  0.96927607  0.31387836  0.65539760     0.36500
H2874       H  0.58142170  0.17693561  0.73386138     0.29100
H2875       H  0.95534232  0.16625465  0.78814140     0.42000
H2876       H  0.96771946  0.27827554  0.84337205     0.32000
H2877       H  0.53746641  0.26912637  0.83996035     0.39700
H2878       H  0.99884980  0.25979670  0.64893944     0.31500
H2879       H  0.94249404  0.33485981  0.75738267     0.31600
H2880       H  0.54633604  0.32737322  0.70741740     0.31800
Zr2881     Zr  0.70984238  0.46150464  0.50722981     2.17500
O2882       O  0.67125711  0.44924025  0.53788710    -0.50500
O2883       O  0.70830714  0.42357639  0.97150084    -0.73700
O2884       O  0.66684484  0.47392064  0.99074224    -0.80500
O2885       O  0.76677552  0.42484472  0.55009889    -0.82300
O2886       O  0.66322597  0.01563248  0.97069456    -0.77900
O2887       O  0.72190909  0.41991317  0.53580850    -0.89500
O2888       O  0.74370389  0.42751089  0.93973921    -0.75500
O2889       O  0.71995887  0.48363339  0.96299096    -0.85000
O2890       O  0.76010763  0.44801633  0.99200093    -0.84700
O2891       O  0.70534417  0.01041861  0.52306550    -0.71400
O2892       O  0.73469415  0.48080757  0.54638942    -0.83600
Zr2893     Zr  0.78536052  0.03828816  0.99266963     2.26400
Zr2894     Zr  0.70991126  0.03191468  0.97123567     2.06300
Zr2895     Zr  0.78278092  0.47006512  0.53571259     2.10000
Zr2896     Zr  0.76629154  0.47128181  0.94821981     1.78800
O2897       O  0.78797991  0.47313737  0.58702987    -0.92400
O2898       O  0.74227511  0.47877048  0.90318054    -0.40200
O2899       O  0.79669492  0.48852847  0.98375998    -0.76800
O2900       O  0.75656885  0.02084919  0.95550375    -0.95500
O2901       O  0.74070930  0.05144781  0.51247408    -0.88800
O2902       O  0.78394212  0.01575351  0.53688642    -0.91600
C2903       C  0.72304833  0.41475109  0.95019260     1.02100
C2904       C  0.74468498  0.41093608  0.54808841     1.15100
C2905       C  0.65530932  0.49511593  0.97783258     1.05800
O2906       O  0.69732418  0.03276045  0.92109894    -0.93800
O2907       O  0.72563594  0.07714878  0.95599841    -0.89500
O2908       O  0.77181493  0.08060315  0.96601947    -0.82700
C2909       C  0.74835784  0.09028017  0.95575050     1.12500
O2910       O  0.70809396  0.01410306  0.59455589    -0.95800
Zr2911     Zr  0.73890268  0.02678913  0.55604935     1.88900
O2912       O  0.79167540  0.07782321  0.52685471    -0.72400
O2913       O  0.67632731  0.07019416  0.98286006    -0.51700
O2914       O  0.70175843  0.06081468  0.56964609    -0.96300
O2915       O  0.76467835  0.01659560  0.59981533    -0.53600
O2916       O  0.76034437  0.07146686  0.56228511    -0.72900
C2917       C  0.77871348  0.08570711  0.54961295     0.99400
O2918       O  0.82102288  0.05009502  0.95816719    -0.61700
O2919       O  0.82041025  0.43389381  0.53200701    -0.56500
O2920       O  0.83383485  0.02751507  0.50442870    -0.93200
O2921       O  0.82977731  0.48542125  0.53690665    -0.91700
O2922       O  0.80625846  0.43801191  0.94315639    -0.92000
O2923       O  0.79813471  0.48096058  0.90947529    -0.90800
C2924       C  0.84689364  0.00517121  0.51341569     1.18300
H2925       H  0.76335819  0.42809859  0.98997228     0.34200
H2926       H  0.76007375  0.03037441  0.93785816     0.45100
H2927       H  0.79854021  0.02134846  0.54948764     0.38600
H2928       H  0.68707257  0.01382554  0.53149079     0.35100
H2929       H  0.72274560  0.47385124  0.90670654     0.26900
H2930       H  0.66400332  0.07226113  0.96601230     0.32800
H2931       H  0.70129761  0.07494887  0.55426521     0.38700
H2932       H  0.79864390  0.41939978  0.94592681     0.33200
H2933       H  0.82147498  0.42471838  0.55087659     0.32000
H2934       H  0.80272246  0.45864253  0.59182846     0.33700
H2935       H  0.78396391  0.02233144  0.59651923     0.32700
H2936       H  0.80594458  0.99895759  0.91961346     0.36700
H2937       H  0.83310285  0.03283514  0.95587816     0.29400
H2938       H  0.65983310  0.43691425  0.52631083     0.33700
H2939       H  0.70250499  0.99512355  0.58965921     0.36500
H2940       H  0.81195098  0.41448935  0.00232849     0.29100
H2941       H  0.81103195  0.05197590  0.93978931     0.42000
H2942       H  0.71189736  0.04341278  0.91169146     0.32000
H2943       H  0.74110605  0.49927943  0.90058128     0.39700
H2944       H  0.76634774  0.99596709  0.60096579     0.31500
H2945       H  0.66587107  0.06266450  0.51385311     0.31600
H2946       H  0.65950162  0.46672287  0.54008744     0.31800
Zr2947     Zr  0.78100758  0.04244504  0.75016814     2.17500
O2948       O  0.81942853  0.06336947  0.77495549    -0.50500
O2949       O  0.77426323  0.08055230  0.71560210    -0.73700
O2950       O  0.82629538  0.03228730  0.72726349    -0.80500
O2951       O  0.72750743  0.07489407  0.80062238    -0.82300
O2952       O  0.84400530  0.47545106  0.71887876    -0.77900
O2953       O  0.77017532  0.08222441  0.78161274    -0.89500
O2954       O  0.73448713  0.07221293  0.69139837    -0.75500
O2955       O  0.76770545  0.02019284  0.70716840    -0.85000
O2956       O  0.73141765  0.04936209  0.74693198    -0.84700
O2957       O  0.80448764  0.48551052  0.76386682    -0.71400
O2958       O  0.76259204  0.02155186  0.79251188    -0.83600
Zr2959     Zr  0.71976037  0.46083964  0.74156768     2.26400
Zr2960     Zr  0.79572699  0.46321653  0.71923515     2.06300
Zr2961     Zr  0.71310104  0.02812889  0.78836791     2.10000
Zr2962     Zr  0.71816311  0.02689929  0.70451756     1.78800
O2963       O  0.71631584  0.01968358  0.83934182    -0.92400
O2964       O  0.72684272  0.02090417  0.65398170    -0.40200
O2965       O  0.69923796  0.00578121  0.74561101    -0.76800
O2966       O  0.74926130  0.47670619  0.70408781    -0.95500
O2967       O  0.76602605  0.44690695  0.75558053    -0.88800
O2968       O  0.72731784  0.48308912  0.78611164    -0.91600
C2969       C  0.75483338  0.08744319  0.69763589     1.02100
C2970       C  0.74868884  0.08987155  0.79669296     1.15100
C2971       C  0.83776169  0.01177371  0.71321151     1.05800
O2972       O  0.80962759  0.46009642  0.66949483    -0.93800
O2973       O  0.77715288  0.42000112  0.70210515    -0.89500
O2974       O  0.73131282  0.41824743  0.71447992    -0.82700
C2975       C  0.75381108  0.40792938  0.70272676     1.12500
O2976       O  0.80543387  0.47902808  0.83831486    -0.95800
Zr2977     Zr  0.77367346  0.46908935  0.79957916     1.88900
O2978       O  0.71487533  0.42250951  0.77508821    -0.72400
O2979       O  0.82560765  0.42266657  0.73299441    -0.51700
O2980       O  0.81230345  0.43435980  0.80544355    -0.96300
O2981       O  0.75074973  0.47657061  0.84519614    -0.53600
O2982       O  0.75048667  0.42561767  0.80658592    -0.72900
C2983       C  0.72971289  0.41315833  0.79611085     0.99400
O2984       O  0.68244749  0.45108409  0.70823507    -0.61700
O2985       O  0.67321976  0.06052615  0.79792734    -0.56500
O2986       O  0.67328388  0.47459348  0.75855077    -0.93200
O2987       O  0.66594119  0.01230233  0.78807714    -0.91700
O2988       O  0.67766334  0.05971758  0.70726056    -0.92000
O2989       O  0.67621078  0.01392223  0.67963199    -0.90800
C2990       C  0.66173695  0.49662595  0.76983491     1.18300
H2991       H  0.72556793  0.06890098  0.74620968     0.34200
H2992       H  0.74511038  0.46745527  0.68649838     0.45100
H2993       H  0.71395576  0.47737477  0.80005887     0.38600
H2994       H  0.82329577  0.48078978  0.77028865     0.35100
H2995       H  0.74635505  0.02629824  0.65147679     0.26900
H2996       H  0.83720098  0.41814037  0.71603262     0.32800
H2997       H  0.80846638  0.41950333  0.79163464     0.38700
H2998       H  0.67053303  0.05767723  0.72686873     0.33200
H2999       H  0.67638947  0.06799603  0.81719145     0.32000
H3000       H  0.69683464  0.02230617  0.84629346     0.33700
H3001       H  0.73429997  0.46490495  0.84498616     0.32700
H3002       H  0.70026121  0.50238728  0.66666869     0.36700
H3003       H  0.67311443  0.46955019  0.70399065     0.29400
H3004       H  0.82843851  0.07515104  0.76066623     0.33700
H3005       H  0.80417580  0.46333054  0.85190265     0.36500
H3006       H  0.67540305  0.07651663  0.78490743     0.29100
H3007       H  0.69194110  0.44579758  0.69020010     0.42000
H3008       H  0.82704058  0.44799026  0.66949958     0.32000
H3009       H  0.72762342  0.00046879  0.65088435     0.39700
H3010       H  0.74284424  0.49602376  0.84436604     0.31500
H3011       H  0.83886783  0.42958227  0.74714958     0.31600
H3012       H  0.83332130  0.04782165  0.77895712     0.31800
O3013       O  0.82668532  0.25999017  0.57607230    -0.74500
O3014       O  0.83262488  0.21494244  0.59171811    -0.53400
C3015       C  0.84129433  0.23684342  0.57920350     0.79200
O3016       O  0.75654403  0.32322712  0.67544602    -0.59100
O3017       O  0.71371270  0.32918467  0.65443984    -0.52100
C3018       C  0.73375815  0.33770919  0.67000566     0.71300
O3019       O  0.82686958  0.26322314  0.66536423    -0.73600
O3020       O  0.83441620  0.21827940  0.65039796    -0.54200
C3021       C  0.84268945  0.24117081  0.66117628     0.77300
O3022       O  0.75419622  0.32390041  0.57049872    -0.58800
O3023       O  0.71167304  0.32839937  0.59259435    -0.51900
C3024       C  0.73076169  0.33733746  0.57615787     0.73900
Zr3025     Zr  0.77868885  0.27907754  0.58225600     2.54700
O3026       O  0.81052146  0.31683435  0.57824055    -0.79400
O3027       O  0.77917327  0.27348452  0.53094459    -0.92800
Zr3028     Zr  0.77718020  0.27640258  0.66684275     2.64700
O3029       O  0.81023013  0.30430568  0.69220613    -0.97700
O3030       O  0.76895536  0.26213940  0.71568741    -0.79800
O3031       O  0.79804804  0.25926926  0.62432550    -0.83100
O3032       O  0.75869415  0.29766440  0.62471923    -2.17900
O3033       O  0.67711543  0.24296820  0.56981213    -0.66500
O3034       O  0.66942001  0.28440627  0.59300198    -0.51100
C3035       C  0.66189146  0.26510542  0.57603456     0.72200
O3036       O  0.74679026  0.17358503  0.67397644    -0.59400
O3037       O  0.79082090  0.17036613  0.65496213    -0.51400
C3038       C  0.77080322  0.16069504  0.66974909     0.74000
O3039       O  0.67548756  0.23931753  0.67397689    -0.70800
O3040       O  0.66954490  0.28294823  0.65449043    -0.49500
C3041       C  0.66105087  0.26236349  0.66927102     0.75400
O3042       O  0.74222350  0.17308562  0.57830015    -0.66200
O3043       O  0.78700335  0.16771110  0.59492682    -0.53400
C3044       C  0.76504248  0.15840180  0.58308919     0.73800
Zr3045     Zr  0.72387476  0.22159688  0.57994172     2.77500
O3046       O  0.69115973  0.18744343  0.56437503    -0.96900
O3047       O  0.73472908  0.22802465  0.53000631    -0.77700
Zr3048     Zr  0.72256574  0.21890074  0.66407925     2.70100
O3049       O  0.68919577  0.18232469  0.66413497    -0.79000
O3050       O  0.72258012  0.22109881  0.71568624    -0.98100
Zr3051     Zr  0.79200491  0.21032516  0.62278225     2.21500
Zr3052     Zr  0.71013526  0.28803544  0.62387737     2.11100
O3053       O  0.70278589  0.23907741  0.62220673    -2.46800
O3054       O  0.74340829  0.20133193  0.62180336    -0.78800
O3055       O  0.73041933  0.27024844  0.58066541    -0.71000
O3056       O  0.77110455  0.22770209  0.66612049    -2.31900
O3057       O  0.77233145  0.23023778  0.57983857    -2.28100
O3058       O  0.72895565  0.26767588  0.66669799    -0.72700
H3059       H  0.76146420  0.31744897  0.62456807     0.79300
H3060       H  0.77996690  0.21876627  0.68246798     0.80400
H3061       H  0.68313903  0.23551743  0.62178824     0.82600
H3062       H  0.78150575  0.22205030  0.56329594     0.80200
H3063       H  0.78778127  0.25658001  0.72312144     0.43200
H3064       H  0.71569477  0.24044706  0.72005720     0.42200
H3065       H  0.69132963  0.17357151  0.64516774     0.41900
H3066       H  0.67511057  0.18944434  0.57764444     0.39800
H3067       H  0.72346078  0.24510531  0.52453154     0.42900
H3068       H  0.79285385  0.28682075  0.52425047     0.37700
H3069       H  0.80871626  0.32681673  0.59659876     0.43800
H3070       H  0.81354923  0.32025560  0.67945988     0.40300
H3071       H  0.68378298  0.19438938  0.54587187     0.45200
H3072       H  0.76082222  0.28177261  0.52466334     0.43900
H3073       H  0.79974682  0.31257218  0.70854091     0.44000
H3074       H  0.70705998  0.20947094  0.72150614     0.44400
O3075       O  0.82787264  0.25787075  0.82853198    -0.74500
O3076       O  0.83107160  0.21327892  0.84566433    -0.53400
C3077       C  0.84098998  0.23398850  0.83221829     0.79200
O3078       O  0.75836677  0.32336427  0.92850926    -0.59100
O3079       O  0.71617700  0.33242243  0.90690130    -0.52100
C3080       C  0.73686964  0.33949028  0.92250756     0.71300
O3081       O  0.82518794  0.25633244  0.92653643    -0.73600
O3082       O  0.83113741  0.21361300  0.90554585    -0.54200
C3083       C  0.83982971  0.23377183  0.92072787     0.77300
O3084       O  0.76261146  0.32700079  0.82872826    -0.58800
O3085       O  0.71883070  0.33412615  0.84769861    -0.51900
C3086       C  0.74035384  0.34227175  0.83400336     0.73900
Zr3087     Zr  0.78099961  0.27918988  0.83553050     2.54700
O3088       O  0.81658957  0.31244285  0.82607596    -0.79400
O3089       O  0.77475923  0.27553172  0.78437883    -0.92800
Zr3090     Zr  0.77750741  0.27591931  0.92021597     2.64700
O3091       O  0.81239906  0.30665965  0.93830425    -0.97700
O3092       O  0.76844541  0.26517825  0.96976825    -0.79800
O3093       O  0.79884333  0.25837845  0.87794320    -0.83100
O3094       O  0.76101495  0.29776512  0.87790100    -2.17900
O3095       O  0.67884777  0.24941491  0.81861743    -0.66500
O3096       O  0.67333233  0.29147778  0.84134413    -0.51100
C3097       C  0.66509129  0.27271503  0.82412004     0.72200
O3098       O  0.74107894  0.17469405  0.92491695    -0.59400
O3099       O  0.78518854  0.16969238  0.90647146    -0.51400
C3100       C  0.76463405  0.16087410  0.92107101     0.74000
O3101       O  0.67270325  0.24148203  0.92100601    -0.70800
O3102       O  0.66781666  0.28556591  0.90230414    -0.49500
C3103       C  0.65828584  0.26417873  0.91527258     0.75400
O3104       O  0.74356223  0.17711278  0.82166710    -0.66200
O3105       O  0.78546977  0.16971592  0.84441275    -0.53400
C3106       C  0.76584909  0.16197463  0.82787985     0.73800
Zr3107     Zr  0.72368205  0.22461765  0.83060989     2.77500
O3108       O  0.68955477  0.18970829  0.82191312    -0.96900
O3109       O  0.73139747  0.23064839  0.77991527    -0.77700
Zr3110     Zr  0.72009601  0.22134001  0.91493295     2.70100
O3111       O  0.68487193  0.18660859  0.91759437    -0.79000
O3112       O  0.72093499  0.22403434  0.96654580    -0.98100
Zr3113     Zr  0.78970760  0.21007559  0.87549937     2.21500
Zr3114     Zr  0.71166301  0.29165433  0.87564755     2.11100
O3115       O  0.70279618  0.24292147  0.87258418    -2.46800
O3116       O  0.74086709  0.20281862  0.87287896    -0.78800
O3117       O  0.73228032  0.27302918  0.83265397    -0.71000
O3118       O  0.76880189  0.22784750  0.91847207    -2.31900
O3119       O  0.77245770  0.23109901  0.83224241    -2.28100
O3120       O  0.72850024  0.26977712  0.91884017    -0.72700
H3121       H  0.76529408  0.31715496  0.87874178     0.79300
H3122       H  0.77675123  0.21828915  0.93495339     0.80400
H3123       H  0.68305212  0.24015428  0.87083842     0.82600
H3124       H  0.78174489  0.22277362  0.81583083     0.80200
H3125       H  0.78507686  0.25350620  0.97582105     0.43200
H3126       H  0.71082247  0.24202668  0.97102616     0.42200
H3127       H  0.68199901  0.18101475  0.89761244     0.41900
H3128       H  0.67581912  0.19222598  0.83755477     0.39800
H3129       H  0.74317527  0.21399199  0.77425129     0.42900
H3130       H  0.79303396  0.26775224  0.77734640     0.37700
H3131       H  0.82242212  0.31862215  0.84513320     0.43800
H3132       H  0.81249596  0.32249164  0.92474716     0.40100
H3133       H  0.67930664  0.19611445  0.80463355     0.45200
H3134       H  0.77367289  0.29510317  0.77752820     0.43900
H3135       H  0.80449357  0.31472664  0.95610181     0.44000
H3136       H  0.70815542  0.20967484  0.97288864     0.44400
C3137       C  0.75392369  0.11533952  0.68395197    -0.15600
C3138       C  0.77526797  0.13249231  0.68261821    -0.30800
H3139       H  0.73404719  0.12226658  0.67441638     0.13400
H3140       H  0.79596718  0.12551120  0.69000852     0.14000
C3141       C  0.73103435  0.36632478  0.68224987    -0.15600
C3142       C  0.75401387  0.37980657  0.68966193    -0.30800
H3143       H  0.71038625  0.37660812  0.68443539     0.13400
H3144       H  0.77453827  0.36980405  0.68559311     0.14000
C3145       C  0.74697083  0.11819581  0.80974386    -0.15600
C3146       C  0.76919744  0.13358736  0.81504632    -0.30800
H3147       H  0.72628342  0.12652513  0.81587677     0.13400
H3148       H  0.79019743  0.12475006  0.81109480     0.14000
C3149       C  0.72317884  0.38563415  0.80845982    -0.15600
C3150       C  0.74180720  0.37173289  0.82537320    -0.30800
H3151       H  0.70450459  0.37562539  0.80159420     0.13400
H3152       H  0.76145143  0.38107719  0.83016840     0.14000
C3153       C  0.74631232  0.11868416  0.94316972    -0.15600
C3154       C  0.76837605  0.13274532  0.93433231    -0.30800
H3155       H  0.72533861  0.12803760  0.94017245     0.13400
H3156       H  0.78934705  0.12301972  0.93577644     0.14000
C3157       C  0.73854706  0.36845131  0.93320469    -0.15600
C3158       C  0.71709233  0.38713261  0.93786874    -0.30800
H3159       H  0.75946839  0.37448274  0.93871932     0.13400
H3160       H  0.69565674  0.38127183  0.93518219     0.14000
C3161       C  0.76419171  0.12848649  0.57563850    -0.15600
C3162       C  0.78424828  0.11379452  0.56115213    -0.30800
H3163       H  0.74429705  0.11913413  0.57927366     0.13400
H3164       H  0.80315664  0.12375973  0.55485287     0.14000
C3165       C  0.74715885  0.38227966  0.55991130    -0.15600
C3166       C  0.72577241  0.36554223  0.56356305    -0.30800
H3167       H  0.76802673  0.37462001  0.56626448     0.13400
H3168       H  0.70446681  0.37327255  0.55918821     0.14000
C3169       C  0.63256671  0.26534800  0.68172443    -0.15600
C3170       C  0.61716978  0.24299124  0.68634891    -0.30800
H3171       H  0.62390965  0.28620188  0.68653849     0.13400
H3172       H  0.62543504  0.22245289  0.67980521     0.14000
C3173       C  0.87230148  0.24388477  0.66895329    -0.15600
C3174       C  0.88736530  0.22444318  0.68367278    -0.30800
H3175       H  0.88045691  0.26446704  0.66635008     0.13400
H3176       H  0.87831203  0.20467301  0.68854038     0.14000
C3177       C  0.62038876  0.25609093  0.80751662    -0.15600
C3178       C  0.63713051  0.27757719  0.81052682    -0.30800
H3179       H  0.62800335  0.23571082  0.81533696     0.13400
H3180       H  0.62939964  0.29869226  0.80543509     0.14000
C3181       C  0.88451626  0.25233671  0.81374219    -0.15600
C3182       C  0.86936065  0.23017212  0.81966542    -0.30800
H3183       H  0.87640261  0.27306516  0.81987071     0.13400
H3184       H  0.87785327  0.20915972  0.81533433     0.14000
C3185       C  0.61411603  0.28145692  0.93940115    -0.15600
C3186       C  0.62812949  0.26334386  0.92214863    -0.30800
H3187       H  0.62465981  0.29925995  0.94761206     0.13400
H3188       H  0.61820699  0.24444096  0.91588834     0.14000
C3189       C  0.86868153  0.23113843  0.93249511    -0.15600
C3190       C  0.88302626  0.25401962  0.93810899    -0.30800
H3191       H  0.87827586  0.21042672  0.93626502     0.13400
H3192       H  0.87372637  0.27446915  0.93251981     0.14000
C3193       C  0.61958649  0.24594711  0.55478918    -0.15600
C3194       C  0.63355102  0.26831514  0.56301649    -0.30800
H3195       H  0.62905752  0.22513863  0.55839843     0.13400
H3196       H  0.62346863  0.28909859  0.56149065     0.14000
C3197       C  0.88544549  0.21576905  0.55664548    -0.15600
C3198       C  0.87047258  0.23723500  0.56877263    -0.30800
H3199       H  0.87611438  0.19589977  0.55323827     0.13400
H3200       H  0.87947604  0.25758301  0.56928120     0.14000
C3201       C  0.60663704  0.49801621  0.77125797    -0.12500
C3202       C  0.63183222  0.49756954  0.77247485    -0.14000
C3203       C  0.86727132  0.01129744  0.70865969    -0.12500
C3204       C  0.89236362  0.00818077  0.70945380    -0.14000
C3205       C  0.51137867  0.39605657  0.77320655    -0.12500
C3206       C  0.51289042  0.37098505  0.77556643    -0.14000
C3207       C  0.99311768  0.10317666  0.71538214    -0.12500
C3208       C  0.99138094  0.12808735  0.71648860    -0.14000
C3209       C  0.62581801  0.49615345  0.97458063    -0.12500
C3210       C  0.60082561  0.49897113  0.97488460    -0.14000
C3211       C  0.90149973  0.00174967  0.51225821    -0.12500
C3212       C  0.87654994  0.00445870  0.51387535    -0.14000
C3213       C  0.50450096  0.40205195  0.97099992    -0.12500
C3214       C  0.50586334  0.37702446  0.97129685    -0.14000
C3215       C  0.99839360  0.12267773  0.51056710    -0.12500
C3216       C  0.00016111  0.09772655  0.50816438    -0.14000
N3217       N  0.97188883  0.52995327  0.01129110    -0.35800
N3218       N  0.53106786  0.52573223  0.47492218    -0.56400
N3219       N  0.52714275  0.97151792  0.98629842    -0.35800
N3220       N  0.96924033  0.97449931  0.00680219    -0.56400
C3221       C  0.97025359  0.56064222  0.52911978     0.27800
C3222       C  0.94432305  0.52556263  0.01008863     0.27800
C3223       C  0.55469622  0.97561561  0.50414008     0.27800
C3224       C  0.52145519  0.94590055  0.97686244     0.27800
C3225       C  0.52806064  0.55098763  0.48745192     0.36400
C3226       C  0.55881066  0.51975421  0.47262837     0.36400
C3227       C  0.94335489  0.97814974  0.01783374     0.36400
C3228       C  0.97464459  0.94667951  0.00465237     0.36400
C3229       C  0.94453687  0.57490144  0.52536402    -0.21100
C3230       C  0.92897864  0.55093726  0.00963431    -0.21100
C3231       C  0.56977807  0.95017774  0.50675596    -0.21100
C3232       C  0.54247248  0.93595442  0.95866574    -0.21100
C3233       C  0.55398453  0.56155561  0.49244596    -0.22100
C3234       C  0.57355517  0.54166901  0.48310204    -0.22100
C3235       C  0.93205985  0.95248002  0.02256136    -0.22100
C3236       C  0.95202900  0.93247425  0.01436148    -0.22100
C3237       C  0.99572144  0.57344737  0.53266779    -0.17500
C3238       C  0.93271009  0.49930388  0.01141769    -0.17500
C3239       C  0.99852073  0.93431231  0.99133140    -0.17500
C3240       C  0.57086346  0.49516390  0.46040696    -0.17500
H3241       H  0.94032162  0.59722776  0.52346586     0.15400
H3242       H  0.90645334  0.55437739  0.00907066     0.15400
H3243       H  0.59226976  0.94653570  0.50766264     0.15400
H3244       H  0.54417573  0.91587777  0.94816944     0.15400
H3245       H  0.55830828  0.58147624  0.50178322     0.13700
H3246       H  0.59602135  0.54321824  0.48385361     0.13700
H3247       H  0.91135090  0.94860757  0.03039454     0.13700
H3248       H  0.94975845  0.91013663  0.01453228     0.13700
H3249       H  0.98779478  0.51486178  0.01533525     0.27000
H3250       H  0.51726878  0.98192977  0.00317631     0.27000
N3251       N  0.96550817  0.52632536  0.24363116    -0.35800
N3252       N  0.52192154  0.52918846  0.25319621    -0.56400
N3253       N  0.53700565  0.96754445  0.27363842    -0.35800
N3254       N  0.97802090  0.96621026  0.25595047    -0.56400
C3255       C  0.96933448  0.55403649  0.24447398     0.27800
C3256       C  0.93761069  0.52329119  0.24351939     0.27800
C3257       C  0.56177813  0.97430451  0.28465950     0.27800
C3258       C  0.53276984  0.94101696  0.28157826     0.27800
C3259       C  0.51897828  0.55453137  0.24079865     0.36400
C3260       C  0.54959591  0.52391867  0.25709664     0.36400
C3261       C  0.95011410  0.96971086  0.25205960     0.36400
C3262       C  0.98257470  0.94144023  0.26922534     0.36400
C3263       C  0.94361968  0.56878503  0.24438503    -0.21100
C3264       C  0.92360136  0.54939932  0.24377672    -0.21100
C3265       C  0.57365685  0.95167159  0.29958118    -0.21100
C3266       C  0.55529624  0.93065539  0.29769516    -0.21100
C3267       C  0.54487110  0.56582449  0.23746584    -0.22100
C3268       C  0.56435528  0.54631093  0.24773777    -0.22100
C3269       C  0.93678862  0.94699007  0.26282482    -0.22100
C3270       C  0.95742390  0.92893959  0.27355147    -0.22100
C3271       C  0.99532314  0.56646569  0.24388656    -0.17500
C3272       C  0.92438675  0.49776795  0.24170105    -0.17500
C3273       C  0.00927293  0.92882317  0.27476940    -0.17500
C3274       C  0.56138588  0.49978711  0.27040965    -0.17500
H3275       H  0.93964575  0.59121522  0.24459837     0.15400
H3276       H  0.90123662  0.55408068  0.24344537     0.15400
H3277       H  0.59367135  0.95029734  0.31033163     0.15400
H3278       H  0.55845389  0.90993028  0.30668851     0.15400
H3279       H  0.54923142  0.58605217  0.22875518     0.13700
H3280       H  0.58673300  0.54849553  0.24853149     0.13700
H3281       H  0.91464746  0.94345268  0.26230138     0.13700
H3282       H  0.95433370  0.90874304  0.28302870     0.13700
H3283       H  0.98088877  0.51064150  0.24015657     0.27000
H3284       H  0.52555220  0.97902412  0.25858461     0.27000
Zr3285     Zr  0.95842245  0.71428353  0.49971915     2.17500
O3286       O  0.93532041  0.67646079  0.47623122    -0.50500
O3287       O  0.92330548  0.71212997  0.02573392    -0.73700
O3288       O  0.97357974  0.66773881  0.00733580    -0.80500
O3289       O  0.92569353  0.76837138  0.45072103    -0.82300
O3290       O  0.51640888  0.66436835  0.03136696    -0.77900
O3291       O  0.91921223  0.72466153  0.46726985    -0.89500
O3292       O  0.92914948  0.74621844  0.05832563    -0.75500
O3293       O  0.98480306  0.72052941  0.03440827    -0.85000
O3294       O  0.94985261  0.76171656  0.00496127    -0.84700
O3295       O  0.51014178  0.70396678  0.47693406    -0.71400
O3296       O  0.97995040  0.73175846  0.45719937    -0.83600
Zr3297     Zr  0.54040597  0.78555351  0.00782497     2.26400
Zr3298     Zr  0.53304297  0.71048116  0.02887031     2.06300
Zr3299     Zr  0.97334335  0.78113193  0.46041304     2.10000
Zr3300     Zr  0.97362350  0.76726358  0.04864641     1.78800
O3301       O  0.98463009  0.77280008  0.41062796    -0.92400
O3302       O  0.97871640  0.74614713  0.09551934    -0.40200
O3303       O  0.99146335  0.79665465  0.01253173    -0.76800
O3304       O  0.52180934  0.75697062  0.04459459    -0.95500
O3305       O  0.55153031  0.73891789  0.48619251    -0.88800
O3306       O  0.51549654  0.78263295  0.46257009    -0.91600
C3307       C  0.91539272  0.72642190  0.04762633     1.02100
C3308       C  0.91110888  0.74685614  0.45353026     1.15100
C3309       C  0.99499977  0.65540643  0.01918547     1.05800
O3310       O  0.53408824  0.69903890  0.07936737    -0.93800
O3311       O  0.57881607  0.72440803  0.04454735    -0.89500
O3312       O  0.58270121  0.77043905  0.03445513    -0.82700
C3313       C  0.59224797  0.74692050  0.04476659     1.12500
O3314       O  0.51267768  0.70687103  0.40476929    -0.95800
Zr3315     Zr  0.52551229  0.73745368  0.44334754     1.88900
O3316       O  0.57955127  0.78565678  0.47105433    -0.72400
O3317       O  0.57087389  0.67682889  0.01597610    -0.51700
O3318       O  0.56026293  0.70010472  0.43229115    -0.96300
O3319       O  0.51291208  0.76328356  0.40032506    -0.53600
O3320       O  0.56797323  0.76081279  0.43216431    -0.72900
C3321       C  0.58456385  0.77597448  0.44593578     0.99400
O3322       O  0.55289075  0.82082721  0.04228768    -0.61700
O3323       O  0.94565157  0.81944546  0.43834221    -0.56500
O3324       O  0.52609232  0.83248019  0.49884806    -0.93200
O3325       O  0.98452935  0.82951099  0.46427853    -0.91700
O3326       O  0.94076783  0.80741692  0.05422627    -0.92000
O3327       O  0.98911491  0.79926385  0.08477600    -0.90800
C3328       C  0.50336900  0.84596534  0.49148642     1.18300
H3329       H  0.92994901  0.76555354  0.00700980     0.34200
H3330       H  0.53096092  0.76045546  0.06242119     0.45100
H3331       H  0.52087247  0.79727152  0.44988501     0.38600
H3332       H  0.51351859  0.68585827  0.46824598     0.35100
H3333       H  0.96137895  0.75242239  0.10566144     0.26900
H3334       H  0.57244661  0.66352571  0.03208753     0.32800
H3335       H  0.57664711  0.70397796  0.44421284     0.38700
H3336       H  0.94566434  0.82050776  0.03893239     0.33200
H3337       H  0.93863194  0.81186848  0.42030199     0.32000
H3338       H  0.97123825  0.75899657  0.40440609     0.33700
H3339       H  0.52005549  0.78211858  0.40268718     0.32700
H3340       H  0.50016053  0.80379520  0.08201168     0.36700
H3341       H  0.53513294  0.83147358  0.04669706     0.29400
H3342       H  0.92501810  0.66689781  0.49133805     0.33700
H3343       H  0.49236753  0.70472891  0.40729961     0.36500
H3344       H  0.91533127  0.81462658  0.98913348     0.29100
H3345       H  0.55727033  0.81044382  0.06008073     0.42000
H3346       H  0.53498564  0.71714524  0.08928560     0.32000
H3347       H  0.97679148  0.72593033  0.09241825     0.39700
H3348       H  0.49230017  0.76617341  0.40110702     0.31500
H3349       H  0.56688870  0.66618312  0.48702279     0.31600
H3350       H  0.95052314  0.66288290  0.47036134     0.31800
Zr3351     Zr  0.54378715  0.78100881  0.24677853     2.17500
O3352       O  0.56195000  0.81660848  0.21569947    -0.50500
O3353       O  0.58181272  0.77808233  0.28217578    -0.73700
O3354       O  0.53408260  0.82785773  0.26502872    -0.80500
O3355       O  0.57768625  0.72411104  0.20097560    -0.82300
O3356       O  0.98684721  0.83391343  0.28173533    -0.77900
O3357       O  0.58458528  0.76757596  0.21797081    -0.89500
O3358       O  0.57324314  0.74065817  0.31002704    -0.75500
O3359       O  0.52039090  0.77238313  0.29047245    -0.85000
O3360       O  0.55157488  0.73246142  0.25591413    -0.84700
O3361       O  0.99369555  0.79292085  0.23685527    -0.71400
O3362       O  0.52383533  0.75787690  0.20672805    -0.83600
Zr3363     Zr  0.96125437  0.71181476  0.26132688     2.26400
Zr3364     Zr  0.96838080  0.78786637  0.28051348     2.06300
Zr3365     Zr  0.53200698  0.70933959  0.21660068     2.10000
Zr3366     Zr  0.52794335  0.72367127  0.29907829     1.78800
O3367       O  0.52927329  0.70282829  0.16542481    -0.92400
O3368       O  0.52141311  0.74165201  0.34681510    -0.40200
O3369       O  0.50869296  0.69939053  0.26023782    -0.76800
O3370       O  0.97750723  0.74150932  0.29820486    -0.95500
O3371       O  0.95149850  0.75812706  0.24469696    -0.88800
O3372       O  0.98651186  0.71572175  0.21778790    -0.91600
C3373       C  0.58857040  0.76025385  0.30188730     1.02100
C3374       C  0.59242739  0.74557127  0.20393117     1.15100
C3375       C  0.51308314  0.84083104  0.27687732     1.05800
O3376       O  0.96369684  0.80281049  0.32975171    -0.93800
O3377       O  0.92278359  0.77327739  0.29680861    -0.89500
O3378       O  0.91909487  0.72701346  0.28770195    -0.82700
C3379       C  0.90957423  0.75057299  0.29774682     1.12500
O3380       O  0.99460652  0.79284310  0.16535174    -0.95800
Zr3381     Zr  0.97653949  0.76210413  0.20157225     1.88900
O3382       O  0.92412108  0.70857398  0.22599186    -0.72400
O3383       O  0.93200004  0.82142378  0.26378099    -0.51700
O3384       O  0.94471480  0.80203645  0.19074596    -0.96300
O3385       O  0.98278020  0.73772681  0.15650466    -0.53600
O3386       O  0.93079852  0.74297301  0.19375669    -0.72900
C3387       C  0.91644310  0.72349088  0.20434287     0.99400
O3388       O  0.94751821  0.67642508  0.29534775    -0.61700
O3389       O  0.56691313  0.67083394  0.22229296    -0.56500
O3390       O  0.97280787  0.66412066  0.24703824    -0.93200
O3391       O  0.51521837  0.66280301  0.21649097    -0.91700
O3392       O  0.55934085  0.68216545  0.30263569    -0.92000
O3393       O  0.51374718  0.68692969  0.33099279    -0.90800
C3394       C  0.99502476  0.65073033  0.23825796     1.18300
H3395       H  0.57122758  0.72709415  0.25743669     0.34200
H3396       H  0.96699194  0.73878671  0.31543194     0.45100
H3397       H  0.98064123  0.70225737  0.20409407     0.38600
H3398       H  0.99094916  0.81181941  0.22980941     0.35100
H3399       H  0.52805433  0.76084283  0.34587414     0.26900
H3400       H  0.92909056  0.83481646  0.27962278     0.32800
H3401       H  0.93017316  0.80179283  0.20569167     0.38700
H3402       H  0.55706218  0.67228813  0.28440199     0.33200
H3403       H  0.57587467  0.66847018  0.20342531     0.32000
H3404       H  0.54428630  0.68847926  0.16108263     0.33700
H3405       H  0.97113481  0.72130875  0.15769963     0.32700
H3406       H  0.00191525  0.68694201  0.33394983     0.36700
H3407       H  0.96477402  0.66477354  0.29934856     0.29400
H3408       H  0.57280372  0.82876877  0.22802219     0.33700
H3409       H  0.98133530  0.79238333  0.14924570     0.36500
H3410       H  0.58157051  0.67820152  0.23459687     0.29100
H3411       H  0.94394498  0.68657225  0.31339284     0.42000
H3412       H  0.98148586  0.81150321  0.33416904     0.32000
H3413       H  0.50087146  0.74425604  0.34892124     0.39700
H3414       H  0.00230143  0.72987949  0.15682916     0.31500
H3415       H  0.94094115  0.83220399  0.24863123     0.31600
H3416       H  0.54534437  0.82836591  0.20971498     0.31800
Zr3417     Zr  0.71056162  0.95999887  0.00756128     2.17500
O3418       O  0.67598476  0.94543925  0.04186284    -0.50500
O3419       O  0.70630478  0.92467633  0.47536806    -0.73700
O3420       O  0.66359730  0.97480882  0.50017650    -0.80500
O3421       O  0.77049187  0.92132827  0.04522530    -0.82300
O3422       O  0.66654881  0.51291960  0.46044740    -0.77900
O3423       O  0.72434828  0.91793352  0.03494934    -0.89500
O3424       O  0.73978251  0.92993857  0.44174493    -0.75500
O3425       O  0.71366626  0.98672063  0.46714410    -0.85000
O3426       O  0.75745009  0.95097285  0.49177627    -0.84700
O3427       O  0.70683634  0.50936021  0.01706983    -0.71400
O3428       O  0.73928089  0.97779230  0.04466464    -0.83600
Zr3429     Zr  0.78428245  0.54052442  0.49703253     2.26400
Zr3430     Zr  0.71130510  0.53180125  0.46888016     2.06300
Zr3431     Zr  0.78604762  0.96654669  0.02939442     2.10000
Zr3432     Zr  0.75880911  0.97566545  0.44806545     1.78800
O3433       O  0.79600634  0.96589532  0.08011541    -0.92400
O3434       O  0.72847715  0.98190467  0.40673113    -0.40200
O3435       O  0.79207800  0.99140787  0.48170967    -0.76800
O3436       O  0.75944729  0.52116866  0.45800503    -0.95500
O3437       O  0.74375936  0.54963103  0.00858656    -0.88800
O3438       O  0.78406394  0.51408011  0.03733790    -0.91600
C3439       C  0.72057813  0.91614863  0.45354524     1.02100
C3440       C  0.74773286  0.90822063  0.04545075     1.15100
C3441       C  0.65051939  0.99683040  0.49040001     1.05800
O3442       O  0.70597773  0.53311090  0.41739240    -0.93800
O3443       O  0.72532641  0.57763178  0.45482855    -0.89500
O3444       O  0.76971449  0.58295614  0.47041358    -0.82700
C3445       C  0.74717429  0.59175483  0.45754187     1.12500
O3446       O  0.70908517  0.51243626  0.09225849    -0.95800
Zr3447     Zr  0.73781123  0.52640459  0.05242213     1.88900
O3448       O  0.79360607  0.57562595  0.02798820    -0.72400
O3449       O  0.67399423  0.56717662  0.47838087    -0.51700
O3450       O  0.69728676  0.55875977  0.05869863    -0.96300
O3451       O  0.76325363  0.52103710  0.09699431    -0.53600
O3452       O  0.75837827  0.57148023  0.05982410    -0.72900
C3453       C  0.77869755  0.58463596  0.04917191     0.99400
O3454       O  0.82148518  0.55471265  0.46545357    -0.61700
O3455       O  0.82277598  0.93071922  0.01949643    -0.56500
O3456       O  0.83687458  0.52321590  0.00843581    -0.93200
O3457       O  0.83292678  0.98267566  0.02891025    -0.91700
O3458       O  0.79877265  0.94573560  0.43314985    -0.92000
O3459       O  0.78585165  0.99135588  0.40774562    -0.90800
C3460       C  0.84896178  0.50093506  0.01874295     1.18300
H3461       H  0.76124536  0.93120672  0.48915243     0.34200
H3462       H  0.76446726  0.53026348  0.44054855     0.45100
H3463       H  0.79768011  0.51966137  0.05103787     0.38600
H3464       H  0.68785569  0.51327633  0.02350598     0.35100
H3465       H  0.70986485  0.97613841  0.41290115     0.26900
H3466       H  0.66352098  0.56931232  0.46030280     0.32800
H3467       H  0.70168286  0.57550369  0.04754127     0.38700
H3468       H  0.79856112  0.92927785  0.44587204     0.33200
H3469       H  0.82769346  0.92239955  0.03823093     0.32000
H3470       H  0.81355919  0.95417079  0.08200396     0.33700
H3471       H  0.77888147  0.53371463  0.09591166     0.32700
H3472       H  0.80904618  0.50228306  0.42520127     0.36700
H3473       H  0.83225221  0.53713913  0.46070478     0.29400
H3474       H  0.66296674  0.93418039  0.03094686     0.33700
H3475       H  0.70683220  0.52912879  0.10455724     0.36500
H3476       H  0.81423859  0.91800481  0.49997617     0.29100
H3477       H  0.81218824  0.56021374  0.44735753     0.42000
H3478       H  0.72382824  0.53972803  0.40999494     0.32000
H3479       H  0.72607237  0.00237725  0.40409792     0.39700
H3480       H  0.77226455  0.50202379  0.09641001     0.31500
H3481       H  0.66860159  0.55921593  0.00358454     0.31600
H3482       H  0.66490748  0.96272518  0.04696771     0.31800
Zr3483     Zr  0.77859307  0.54275932  0.25451103     2.17500
O3484       O  0.81366801  0.56840500  0.27971061    -0.50500
O3485       O  0.77642596  0.57981073  0.21776377    -0.73700
O3486       O  0.82711856  0.52729887  0.24267117    -0.80500
O3487       O  0.71937847  0.57908027  0.29667443    -0.82300
O3488       O  0.83910202  0.97663763  0.22186975    -0.77900
O3489       O  0.76539929  0.58223984  0.28581099    -0.89500
O3490       O  0.73962826  0.57182293  0.18894089    -0.75500
O3491       O  0.77159899  0.51778689  0.21138997    -0.85000
O3492       O  0.73070391  0.55138620  0.24218306    -0.84700
O3493       O  0.80090403  0.98609762  0.26582023    -0.71400
O3494       O  0.75176781  0.52548543  0.29372472    -0.83600
Zr3495     Zr  0.71539936  0.96242462  0.24590964     2.26400
Zr3496     Zr  0.79046192  0.96558017  0.22075567     2.06300
Zr3497     Zr  0.70399587  0.53418522  0.28034732     2.10000
Zr3498     Zr  0.72345898  0.52634749  0.19957069     1.78800
O3499       O  0.69268393  0.53538570  0.33078469    -0.92400
O3500       O  0.74380183  0.52185892  0.15248575    -0.40200
O3501       O  0.69559625  0.50941554  0.23719331    -0.76800
O3502       O  0.74346923  0.97921364  0.20767653    -0.95500
O3503       O  0.76220924  0.94835535  0.25785228    -0.88800
O3504       O  0.72485933  0.98368857  0.29062031    -0.91600
C3505       C  0.75906027  0.58690489  0.19771670     1.02100
C3506       C  0.74229826  0.59184771  0.29701300     1.15100
C3507       C  0.83976015  0.50552417  0.23166754     1.05800
O3508       O  0.79739759  0.97006345  0.16973077    -0.93800
O3509       O  0.77265776  0.92112137  0.20679527    -0.89500
O3510       O  0.72691970  0.91896120  0.21930959    -0.82700
C3511       C  0.74966121  0.90855523  0.20789567     1.12500
O3512       O  0.80893606  0.97726077  0.33580292    -0.95800
Zr3513     Zr  0.77148120  0.96896745  0.30224792     1.88900
O3514       O  0.70940933  0.92498305  0.28020131    -0.72400
O3515       O  0.82197679  0.92390738  0.22247788    -0.51700
O3516       O  0.80664062  0.93043255  0.30546869    -0.96300
O3517       O  0.75335188  0.97483090  0.35030871    -0.53600
O3518       O  0.74669523  0.92656179  0.30991073    -0.72900
C3519       C  0.72490915  0.91504227  0.30045722     0.99400
O3520       O  0.67824030  0.95239550  0.21255699    -0.61700
O3521       O  0.66821859  0.57066713  0.26915641    -0.56500
O3522       O  0.66986518  0.97683168  0.26509824    -0.93200
O3523       O  0.65736407  0.51762759  0.28090991    -0.91700
O3524       O  0.68095366  0.55613584  0.19439124    -0.92000
O3525       O  0.69167257  0.50899183  0.16419749    -0.90800
C3526       C  0.65930675  0.99799688  0.27874148     1.18300
H3527       H  0.72594557  0.57110060  0.24010047     0.34200
H3528       H  0.73865932  0.97034073  0.19006556     0.45100
H3529       H  0.71205985  0.97782195  0.30508471     0.38600
H3530       H  0.81982571  0.98113058  0.27169924     0.35100
H3531       H  0.74045971  0.54059939  0.14388264     0.26900
H3532       H  0.83465571  0.92537101  0.20597311     0.32800
H3533       H  0.82103331  0.93461029  0.29120531     0.38700
H3534       H  0.68444524  0.57317396  0.20539202     0.33200
H3535       H  0.66302933  0.57923718  0.28767641     0.32000
H3536       H  0.67592081  0.54831380  0.33220710     0.33700
H3537       H  0.73476359  0.96672269  0.35008363     0.32700
H3538       H  0.69121929  0.00729264  0.17594898     0.36700
H3539       H  0.66695228  0.97019446  0.21053952     0.29400
H3540       H  0.82602893  0.57579892  0.26491877     0.33700
H3541       H  0.80747949  0.96295830  0.35087938     0.36500
H3542       H  0.67809477  0.58527528  0.25891603     0.29100
H3543       H  0.68769575  0.95002428  0.19393525     0.42000
H3544       H  0.78700402  0.95481684  0.16128921     0.32000
H3545       H  0.76424791  0.52013374  0.15568500     0.39700
H3546       H  0.74932256  0.99518099  0.35225425     0.31500
H3547       H  0.83396346  0.92613660  0.23937496     0.31600
H3548       H  0.82541620  0.55417904  0.29013612     0.31800
O3549       O  0.82704471  0.76041069  0.07878673    -0.74500
O3550       O  0.83505257  0.71578672  0.09482901    -0.53400
C3551       C  0.84287728  0.73824465  0.08268036     0.79200
O3552       O  0.75730982  0.82354841  0.17878353    -0.59100
O3553       O  0.71445940  0.82827219  0.15755949    -0.52100
C3554       C  0.73383886  0.83714284  0.17377652     0.71300
O3555       O  0.82966258  0.76061590  0.17195434    -0.73600
O3556       O  0.83662958  0.71644915  0.15428073    -0.54200
C3557       C  0.84491222  0.73815419  0.16743946     0.77300
O3558       O  0.75492992  0.82231609  0.07218213    -0.58800
O3559       O  0.71310044  0.82783205  0.09532870    -0.51900
C3560       C  0.73207772  0.83644101  0.07844677     0.73900
Zr3561     Zr  0.77803446  0.77648050  0.08225515     2.54700
O3562       O  0.81004181  0.81184559  0.06844997    -0.79400
O3563       O  0.77359606  0.76679334  0.03175801    -0.92800
Zr3564     Zr  0.78137724  0.77877380  0.16651846     2.64700
O3565       O  0.81530430  0.81467544  0.17094535    -0.97700
O3566       O  0.77891087  0.77312091  0.21776422    -0.79800
O3567       O  0.79987054  0.75891819  0.12409295    -0.83100
O3568       O  0.76014581  0.79731009  0.12463378    -2.17900
O3569       O  0.67796182  0.74010324  0.07434906    -0.66500
O3570       O  0.67102591  0.78236320  0.09627905    -0.51100
C3571       C  0.66320168  0.76278463  0.07978625     0.72200
O3572       O  0.75096342  0.67437897  0.17891513    -0.59400
O3573       O  0.79430473  0.67053347  0.15843475    -0.51400
C3574       C  0.77471047  0.66123015  0.17395493     0.74000
O3575       O  0.68039072  0.74033641  0.18138076    -0.70800
O3576       O  0.67263590  0.78254118  0.15920531    -0.49500
C3577       C  0.66526162  0.76275102  0.17570770     0.75400
O3578       O  0.74405992  0.67039676  0.08251038    -0.66200
O3579       O  0.78908832  0.66617120  0.09865110    -0.53400
C3580       C  0.76726255  0.65627297  0.08690523     0.73800
Zr3581     Zr  0.72397903  0.71806475  0.08649029     2.77500
O3582       O  0.68908674  0.68282281  0.08588520    -0.96900
O3583       O  0.72836632  0.71601351  0.03509502    -0.77700
Zr3584     Zr  0.72753897  0.72047002  0.17054704     2.70100
O3585       O  0.69489407  0.68498131  0.18227775    -0.79000
O3586       O  0.73587021  0.72818282  0.22079902    -0.98100
Zr3587     Zr  0.79445547  0.70979047  0.12564681     2.21500
Zr3588     Zr  0.71186292  0.78718117  0.12679140     2.11100
O3589       O  0.70512431  0.73804560  0.12866481    -2.46800
O3590       O  0.74602805  0.70035857  0.12826024    -0.78800
O3591       O  0.72998501  0.76692485  0.08368240    -0.71000
O3592       O  0.77579894  0.72986347  0.16892040    -2.31900
O3593       O  0.77231183  0.72740593  0.08284815    -2.28100
O3594       O  0.73337809  0.76930033  0.16942328    -0.72700
H3595       H  0.76257163  0.81716096  0.12428809     0.79300
H3596       H  0.78549076  0.72193381  0.18531180     0.80400
H3597       H  0.68548803  0.73441825  0.12919126     0.82600
H3598       H  0.78070069  0.71853306  0.06625516     0.80200
H3599       H  0.78591836  0.79066411  0.22537370     0.43200
H3600       H  0.71728103  0.73441053  0.22835260     0.42200
H3601       H  0.69154823  0.67556967  0.16398008     0.41900
H3602       H  0.67427202  0.68976092  0.09917705     0.39800
H3603       H  0.71880150  0.69901907  0.02963002     0.42900
H3604       H  0.79294513  0.76722438  0.02437071     0.37700
H3605       H  0.81504220  0.82073913  0.08659298     0.43800
H3606       H  0.80869376  0.82973887  0.15776586     0.40300
H3607       H  0.68037071  0.68432218  0.06683373     0.45200
H3608       H  0.76388904  0.78382672  0.02384874     0.43900
H3609       H  0.81230998  0.82262584  0.19017114     0.44000
H3610       H  0.73950398  0.70921625  0.22878624     0.44400
O3611       O  0.82453015  0.75727313  0.32690826    -0.74500
O3612       O  0.82874076  0.71373983  0.34646436    -0.53400
C3613       C  0.83825233  0.73395276  0.33175856     0.79200
O3614       O  0.75959673  0.82590969  0.42902122    -0.59100
O3615       O  0.71643913  0.83453270  0.40926617    -0.52100
C3616       C  0.73743679  0.84168280  0.42431677     0.71300
O3617       O  0.82582131  0.75568891  0.42626976    -0.73600
O3618       O  0.82925742  0.71235158  0.40623704    -0.54200
C3619       C  0.83910719  0.73213710  0.42104400     0.77300
O3620       O  0.75890850  0.82475173  0.32540727    -0.58800
O3621       O  0.71731370  0.83484300  0.34792139    -0.51900
C3622       C  0.73773333  0.84116840  0.33152220     0.73900
Zr3623     Zr  0.77754249  0.77777435  0.33498580     2.54700
O3624       O  0.81207553  0.81072420  0.32120891    -0.79400
O3625       O  0.76971610  0.76802338  0.28503681    -0.92800
Zr3626     Zr  0.77923604  0.77852344  0.41959606     2.64700
O3627       O  0.81601416  0.80999955  0.43091873    -0.97700
O3628       O  0.77336807  0.77182790  0.47046898    -0.79800
O3629       O  0.79777464  0.75867553  0.37700016    -0.83100
O3630       O  0.76047370  0.79911966  0.37747713    -2.17900
O3631       O  0.67513871  0.75147251  0.32368266    -0.66500
O3632       O  0.67092578  0.79365650  0.34630319    -0.51100
C3633       C  0.66211720  0.77510288  0.32920131     0.72200
O3634       O  0.74104037  0.67795910  0.43077559    -0.59400
O3635       O  0.78321498  0.67070396  0.40842841    -0.51400
C3636       C  0.76359003  0.66304726  0.42497332     0.74000
O3637       O  0.67817064  0.75149571  0.43683551    -0.70800
O3638       O  0.66981945  0.79084480  0.40987442    -0.49500
C3639       C  0.66320784  0.77350471  0.42958541     0.75400
O3640       O  0.73785014  0.67740425  0.32621001    -0.66200
O3641       O  0.78090103  0.67010151  0.34675420    -0.53400
C3642       C  0.76047869  0.66232164  0.33128485     0.73800
Zr3643     Zr  0.71826559  0.72467432  0.33670054     2.77500
O3644       O  0.68032621  0.69268744  0.33787476    -0.96900
O3645       O  0.72056347  0.72449370  0.28510534    -0.77700
Zr3646     Zr  0.72020594  0.72485565  0.42056980     2.70100
O3647       O  0.68212388  0.69323686  0.41854031    -0.79000
O3648       O  0.72283965  0.72329253  0.47216581    -0.98100
Zr3649     Zr  0.78734908  0.71066091  0.37703777     2.21500
Zr3650     Zr  0.71090646  0.79383474  0.37852295     2.11100
O3651       O  0.70007616  0.74553752  0.37899440    -2.46800
O3652       O  0.73825147  0.70423875  0.37830165    -0.78800
O3653       O  0.72854827  0.77270171  0.33551411    -0.71000
O3654       O  0.76922873  0.73067024  0.42041825    -2.31900
O3655       O  0.76736705  0.73009660  0.33440896    -2.28100
O3656       O  0.73031021  0.77293645  0.42099312    -0.72700
H3657       H  0.76487439  0.81851561  0.37727861     0.79300
H3658       H  0.77799362  0.72156458  0.43674618     0.80400
H3659       H  0.68007658  0.74377171  0.37948103     0.82600
H3660       H  0.77542651  0.72092076  0.31780677     0.80200
H3661       H  0.75293843  0.77395908  0.47374842     0.43200
H3662       H  0.71054856  0.70822227  0.47770091     0.42200
H3663       H  0.68007840  0.68908074  0.39807963     0.41900
H3664       H  0.66437044  0.70325861  0.34689483     0.39800
H3665       H  0.70493139  0.71311891  0.27914175     0.42900
H3666       H  0.78743507  0.77269011  0.27577144     0.37700
H3667       H  0.81945031  0.81747341  0.33945856     0.43800
H3668       H  0.81398562  0.82526024  0.41673638     0.40100
H3669       H  0.67466801  0.69071920  0.31777864     0.45200
H3670       H  0.75591665  0.78287274  0.27874371     0.43900
H3671       H  0.81041386  0.81875945  0.44923174     0.44000
H3672       H  0.74200405  0.71559915  0.47634224     0.44400
C3673       C  0.75890820  0.61494108  0.18455457    -0.15600
C3674       C  0.77926490  0.63300494  0.18650586    -0.30800
H3675       H  0.74012300  0.62139004  0.17270491     0.13400
H3676       H  0.79920214  0.62681691  0.19624266     0.14000
C3677       C  0.72921640  0.86524671  0.18726620    -0.15600
C3678       C  0.75110329  0.87988522  0.19563921    -0.30800
H3679       H  0.70809100  0.87453372  0.18886634     0.13400
H3680       H  0.77209353  0.87076846  0.19207618     0.14000
C3681       C  0.74090123  0.61994172  0.31051511    -0.15600
C3682       C  0.76337025  0.63393636  0.31836594    -0.30800
H3683       H  0.72013253  0.62943408  0.31442653     0.13400
H3684       H  0.78419292  0.62402403  0.31618850     0.14000
C3685       C  0.71831684  0.88775474  0.31311140    -0.15600
C3686       C  0.73963804  0.86966077  0.31996126    -0.30800
H3687       H  0.69680953  0.88178315  0.31477641     0.13400
H3688       H  0.76079747  0.87560896  0.31531779     0.14000
C3689       C  0.74509129  0.62034011  0.44545785    -0.15600
C3690       C  0.76724701  0.63488914  0.43806541    -0.30800
H3691       H  0.72415738  0.62933158  0.44131131     0.13400
H3692       H  0.78824503  0.62533289  0.44007339     0.14000
C3693       C  0.73814799  0.87043154  0.43601699    -0.15600
C3694       C  0.71588731  0.88789937  0.44192675    -0.30800
H3695       H  0.75886288  0.87746878  0.44081351     0.13400
H3696       H  0.69477580  0.88090578  0.43993287     0.14000
C3697       C  0.76678273  0.62617971  0.07928133    -0.15600
C3698       C  0.78472873  0.61261573  0.06126343    -0.30800
H3699       H  0.74798372  0.61599816  0.08555030     0.13400
H3700       H  0.80250695  0.62332423  0.05311591     0.14000
C3701       C  0.74975551  0.87968378  0.05797544    -0.15600
C3702       C  0.72777145  0.86486462  0.06577772    -0.30800
H3703       H  0.77077615  0.87063581  0.06152028     0.13400
H3704       H  0.70665494  0.87418989  0.06415709     0.14000
C3705       C  0.63706685  0.76581929  0.18866160    -0.15600
C3706       C  0.62068669  0.74391004  0.19087221    -0.30800
H3707       H  0.62911274  0.78651803  0.19497808     0.13400
H3708       H  0.62831198  0.72376720  0.18259630     0.14000
C3709       C  0.87430376  0.73913747  0.17726260    -0.15600
C3710       C  0.88872448  0.71850761  0.19129257    -0.30800
H3711       H  0.88338014  0.75938682  0.17564848     0.13400
H3712       H  0.87898085  0.69897061  0.19552502     0.14000
C3713       C  0.61643939  0.75974568  0.31552961    -0.15600
C3714       C  0.63435153  0.78039466  0.31564105    -0.30800
H3715       H  0.62274244  0.74038076  0.32643466     0.13400
H3716       H  0.62828904  0.80087689  0.30709423     0.14000
C3717       C  0.88120476  0.75252547  0.31079156    -0.15600
C3718       C  0.86698827  0.73036960  0.31950219    -0.30800
H3719       H  0.87176988  0.77343854  0.31371589     0.13400
H3720       H  0.87678924  0.70946245  0.31819324     0.14000
C3721       C  0.61152772  0.78144100  0.43163405    -0.15600
C3722       C  0.63627697  0.77808278  0.44519731    -0.30800
H3723       H  0.61151262  0.78291871  0.40858356     0.13400
H3724       H  0.63624258  0.77298281  0.46771627     0.14000
C3725       C  0.86772364  0.72755697  0.43310947    -0.15600
C3726       C  0.88274423  0.74926809  0.44086386    -0.30800
H3727       H  0.87677515  0.70637556  0.43495192     0.13400
H3728       H  0.87412110  0.77036409  0.43700132     0.14000
C3729       C  0.62080604  0.74465522  0.05740050    -0.15600
C3730       C  0.63504754  0.76658244  0.06630420    -0.30800
H3731       H  0.63008896  0.72368474  0.06048091     0.13400
H3732       H  0.62529403  0.78751997  0.06501583     0.14000
C3733       C  0.88798374  0.72027819  0.06057697    -0.15600
C3734       C  0.87222579  0.74059310  0.07339645    -0.30800
H3735       H  0.87938961  0.70009014  0.05686545     0.13400
H3736       H  0.88015973  0.76139797  0.07442141     0.14000
C3737       C  0.60475502  0.99941664  0.28399092    -0.12500
C3738       C  0.62987747  0.99877349  0.28375840    -0.14000
C3739       C  0.86975162  0.50325102  0.23228640    -0.12500
C3740       C  0.89466845  0.49952162  0.23554845    -0.14000
C3741       C  0.51250531  0.89549483  0.27755771    -0.12500
C3742       C  0.51381307  0.87044363  0.27928472    -0.14000
C3743       C  0.99517502  0.59615394  0.23921883    -0.12500
C3744       C  0.99465579  0.62111357  0.23729596    -0.14000
C3745       C  0.62087306  0.99803273  0.49102414    -0.12500
C3746       C  0.59607917  0.00072929  0.49426532    -0.14000
C3747       C  0.90343088  0.49870502  0.01755171    -0.12500
C3748       C  0.87854750  0.49977048  0.02004508    -0.14000
C3749       C  0.50059205  0.90043142  0.49785573    -0.12500
C3750       C  0.50233787  0.87563652  0.49405459    -0.14000
C3751       C  0.99550044  0.62579508  0.02172894    -0.12500
C3752       C  0.99779741  0.60082038  0.01991327    -0.14000
N3753       N  0.96683096  0.53292987  0.53081895    -0.35800
N3754       N  0.53104736  0.53038385  0.99486349    -0.56400
N3755       N  0.52710614  0.97135177  0.50318774    -0.35800
N3756       N  0.97044672  0.96829358  0.49229889    -0.56400
C3757       C  0.97428600  0.55787732  0.01131040     0.27800
C3758       C  0.93920298  0.52941812  0.52794899     0.27800
C3759       C  0.55161952  0.97798539  0.97446204     0.27800
C3760       C  0.52446989  0.94350443  0.50532576     0.27800
C3761       C  0.52778757  0.55493906  0.00867766     0.36400
C3762       C  0.55882666  0.52484047  0.99222545     0.36400
C3763       C  0.94281858  0.97411095  0.49599752     0.36400
C3764       C  0.97318954  0.94206269  0.48195581     0.36400
C3765       C  0.94794117  0.57138618  0.01038875    -0.21100
C3766       C  0.92489028  0.55515431  0.52466983    -0.21100
C3767       C  0.56155193  0.95632504  0.95706778    -0.21100
C3768       C  0.55065682  0.92988958  0.50745100    -0.21100
C3769       C  0.55359736  0.56549275  0.01431494    -0.22100
C3770       C  0.57336715  0.54627241  0.00398232    -0.22100
C3771       C  0.92786701  0.95128140  0.48832868    -0.22100
C3772       C  0.94718754  0.93089018  0.47948236    -0.22100
C3773       C  0.99952705  0.57135023  0.01388833    -0.17500
C3774       C  0.92642959  0.50377510  0.52973158    -0.17500
C3775       C  0.99906902  0.92747425  0.47722754    -0.17500
C3776       C  0.57099174  0.50130223  0.97817299    -0.17500
H3777       H  0.94287289  0.59365204  0.01051315     0.15400
H3778       H  0.90258286  0.55931255  0.52215070     0.15400
H3779       H  0.58095201  0.95499668  0.94519494     0.15400
H3780       H  0.55550538  0.90763624  0.50903032     0.15400
H3781       H  0.55769347  0.58497121  0.02470646     0.13700
H3782       H  0.59581047  0.54797280  0.00482869     0.13700
H3783       H  0.90546626  0.94933942  0.48948550     0.13700
H3784       H  0.94267875  0.91012915  0.47245242     0.13700
H3785       H  0.98192634  0.51768931  0.53690302     0.27000
H3786       H  0.51141009  0.98618425  0.49771884     0.27000
N3787       N  0.97814879  0.52417824  0.74663186    -0.35800
N3788       N  0.53518226  0.52622669  0.75154720    -0.56400
N3789       N  0.52783245  0.96859700  0.77968183    -0.35800
N3790       N  0.96192935  0.97503660  0.72846882    -0.56400
C3791       C  0.98239500  0.55050456  0.73811320     0.27800
C3792       C  0.95441093  0.51650609  0.73407170     0.27800
C3793       C  0.55348420  0.97412393  0.78939303     0.27800
C3794       C  0.52216341  0.94299143  0.78924606     0.27800
C3795       C  0.53044686  0.55241342  0.74143978     0.36400
C3796       C  0.56315959  0.52217696  0.75451185     0.36400
C3797       C  0.93600308  0.97943593  0.71741530     0.36400
C3798       C  0.96685856  0.94709860  0.73027296     0.36400
C3799       C  0.96110772  0.55976734  0.71986866    -0.21100
C3800       C  0.94350109  0.53823109  0.71718303    -0.21100
C3801       C  0.56408724  0.95190810  0.80576590    -0.21100
C3802       C  0.54429272  0.93216397  0.80559657    -0.21100
C3803       C  0.55551286  0.56528094  0.73823441    -0.22100
C3804       C  0.57630144  0.54602617  0.74634462    -0.22100
C3805       C  0.92417997  0.95415740  0.71244398    -0.22100
C3806       C  0.94378044  0.93361914  0.72056990    -0.22100
C3807       C  0.00377260  0.56701769  0.74806144    -0.17500
C3808       C  0.94072939  0.49184526  0.74002874    -0.17500
C3809       C  0.99112059  0.93383799  0.74238128    -0.17500
C3810       C  0.57668405  0.49809358  0.76658282    -0.17500
H3811       H  0.95823741  0.58012230  0.70998495     0.15400
H3812       H  0.92432160  0.53887968  0.70496946     0.15400
H3813       H  0.58441591  0.94969425  0.81582737     0.15400
H3814       H  0.54635053  0.91177296  0.81552462     0.15400
H3815       H  0.55845721  0.58644079  0.73122705     0.13700
H3816       H  0.59846242  0.54945675  0.74687736     0.13700
H3817       H  0.90346580  0.95089875  0.70429615     0.13700
H3818       H  0.94117609  0.91135104  0.71985626     0.13700
H3819       H  0.98851754  0.51376199  0.76316582     0.27000
H3820       H  0.51694847  0.97940041  0.76369499     0.27000
Zr3821     Zr  0.96071656  0.71479534  0.99060084     2.17500
O3822       O  0.94398831  0.67867304  0.95941556    -0.50500
O3823       O  0.92010440  0.72223017  0.53447753    -0.73700
O3824       O  0.96955018  0.66887674  0.52175227    -0.80500
O3825       O  0.92404242  0.77305100  0.94947543    -0.82300
O3826       O  0.52090497  0.65958867  0.51553863    -0.77900
O3827       O  0.92040317  0.72713290  0.96040503    -0.89500
O3828       O  0.92713916  0.76387835  0.55549957    -0.75500
O3829       O  0.98109400  0.72762571  0.54243663    -0.85000
O3830       O  0.95161566  0.76374903  0.50211807    -0.84700
O3831       O  0.51121360  0.70320509  0.98357885    -0.71400
O3832       O  0.97748318  0.74381511  0.95310318    -0.83600
Zr3833     Zr  0.54122281  0.78375452  0.50590554     2.26400
Zr3834     Zr  0.53580376  0.70668949  0.52074013     2.06300
Zr3835     Zr  0.96745808  0.79059104  0.96846446     2.10000
Zr3836     Zr  0.97404876  0.77697433  0.54473199     1.78800
O3837       O  0.96986181  0.80501779  0.91893080    -0.92400
O3838       O  0.97570531  0.76319984  0.59452664    -0.40200
O3839       O  0.99485428  0.79575835  0.50337746    -0.76800
O3840       O  0.52559762  0.75161388  0.54135042    -0.95500
O3841       O  0.55156308  0.73915038  0.99317114    -0.88800
O3842       O  0.51843008  0.78004599  0.96262926    -0.91600
C3843       C  0.91228022  0.74302905  0.55046179     1.02100
C3844       C  0.91127431  0.75008508  0.94867724     1.15100
C3845       C  0.99029867  0.65758694  0.53567306     1.05800
O3846       O  0.53894419  0.68659677  0.56829761    -0.93800
O3847       O  0.57998650  0.72182692  0.54012901    -0.89500
O3848       O  0.58123001  0.76890544  0.53532773    -0.82700
C3849       C  0.59169581  0.74511843  0.54376146     1.12500
O3850       O  0.52034164  0.69640174  0.91494356    -0.95800
Zr3851     Zr  0.52992546  0.73333619  0.94852178     1.88900
O3852       O  0.57990481  0.78782279  0.97498587    -0.72400
O3853       O  0.57453130  0.67637791  0.50329906    -0.51700
O3854       O  0.56863692  0.69873081  0.94251502    -0.96300
O3855       O  0.52060471  0.75339208  0.90194527    -0.53600
O3856       O  0.57239009  0.75753876  0.93895412    -0.72900
C3857       C  0.58698656  0.77541871  0.95165918     0.99400
O3858       O  0.55973963  0.82198415  0.53299655    -0.61700
O3859       O  0.92876685  0.82460967  0.97737215    -0.56500
O3860       O  0.52771235  0.83318342  0.99338570    -0.93200
O3861       O  0.98130303  0.83802933  0.97464808    -0.91700
O3862       O  0.94414837  0.81964523  0.54264836    -0.92000
O3863       O  0.99060185  0.81483056  0.57353054    -0.90800
C3864       C  0.50548945  0.84570097  0.98333638     1.18300
H3865       H  0.93207049  0.76978208  0.50267842     0.34200
H3866       H  0.53589856  0.75334133  0.55884521     0.45100
H3867       H  0.52500150  0.79331781  0.94902577     0.38600
H3868       H  0.51532634  0.68427420  0.97728001     0.35100
H3869       H  0.95996488  0.77421850  0.60342294     0.26900
H3870       H  0.57770506  0.66203944  0.51829600     0.32800
H3871       H  0.58270356  0.70362055  0.95683697     0.38700
H3872       H  0.93525185  0.81931473  0.52367087     0.33200
H3873       H  0.91930348  0.82746509  0.95880661     0.32000
H3874       H  0.95078212  0.81272894  0.91442021     0.33700
H3875       H  0.52757737  0.77243571  0.90273315     0.32700
H3876       H  0.51008829  0.79382589  0.58368146     0.36700
H3877       H  0.55844873  0.81637054  0.55319676     0.29400
H3878       H  0.93273017  0.66669301  0.97162510     0.33700
H3879       H  0.53361235  0.69858325  0.89903760     0.36500
H3880       H  0.92885355  0.82241874  0.45047922     0.29100
H3881       H  0.58002842  0.82164478  0.52876992     0.42000
H3882       H  0.52238733  0.67517879  0.57009419     0.32000
H3883       H  0.96970860  0.74376541  0.59487364     0.39700
H3884       H  0.49998930  0.75626062  0.90126044     0.31500
H3885       H  0.56348770  0.66595409  0.00005203     0.31600
H3886       H  0.96077000  0.66682812  0.95419178     0.31800
Zr3887     Zr  0.53795373  0.78585071  0.74423091     2.17500
O3888       O  0.55358969  0.82184125  0.71211497    -0.50500
O3889       O  0.57539246  0.78981891  0.77899856    -0.73700
O3890       O  0.52521289  0.83228469  0.76201200    -0.80500
O3891       O  0.57864900  0.72575596  0.70951453    -0.82300
O3892       O  0.97557189  0.83815411  0.76303899    -0.77900
O3893       O  0.57996289  0.77254787  0.71681078    -0.89500
O3894       O  0.56861105  0.75783650  0.81365478    -0.75500
O3895       O  0.51254472  0.78126114  0.78738117    -0.85000
O3896       O  0.54930104  0.73982101  0.76103008    -0.84700
O3897       O  0.98849089  0.79223092  0.72537242    -0.71400
O3898       O  0.52280718  0.75555703  0.70728826    -0.83600
Zr3899     Zr  0.95943101  0.71286240  0.75905802     2.26400
Zr3900     Zr  0.96108769  0.79103340  0.76823306     2.06300
Zr3901     Zr  0.53365172  0.70959115  0.72507697     2.10000
Zr3902     Zr  0.52454024  0.73576809  0.80434887     1.78800
O3903       O  0.53618171  0.69631701  0.67519713    -0.92400
O3904       O  0.51449897  0.76468608  0.84579267    -0.40200
O3905       O  0.50914338  0.70392789  0.76898005    -0.76800
O3906       O  0.97235683  0.74803904  0.79229404    -0.95500
O3907       O  0.94803592  0.75603427  0.73601807    -0.88800
O3908       O  0.98640994  0.71296646  0.71626620    -0.91600
C3909       C  0.58285002  0.77676272  0.80185433     1.02100
C3910       C  0.59067165  0.74903829  0.70778058     1.15100
C3911       C  0.50387604  0.84408572  0.77442214     1.05800
O3912       O  0.95159117  0.81262034  0.81423558    -0.93800
O3913       O  0.91591617  0.77566582  0.78530586    -0.89500
O3914       O  0.91516001  0.72841580  0.78168857    -0.82700
C3915       C  0.90389976  0.75244607  0.78854038     1.12500
O3916       O  0.99325317  0.77951490  0.65216666    -0.95800
Zr3917     Zr  0.97498675  0.75638733  0.69378045     1.88900
O3918       O  0.92269941  0.70567796  0.72393732    -0.72400
O3919       O  0.92366494  0.81811381  0.74395240    -0.51700
O3920       O  0.94625363  0.79630605  0.67643049    -0.96300
O3921       O  0.98163087  0.72579697  0.65274740    -0.53600
O3922       O  0.92869651  0.73791185  0.68929219    -0.72900
C3923       C  0.91441912  0.71944357  0.70171344     0.99400
O3924       O  0.94508701  0.68148284  0.79672316    -0.61700
O3925       O  0.57046047  0.67497730  0.73844716    -0.56500
O3926       O  0.97381744  0.66444444  0.74930393    -0.93200
O3927       O  0.51909969  0.66228464  0.72762682    -0.91700
O3928       O  0.55811131  0.69868254  0.81939277    -0.92000
O3929       O  0.50937136  0.70503168  0.84196417    -0.90800
C3930       C  0.99678157  0.65143209  0.74187772     1.18300
H3931       H  0.56918304  0.73638243  0.76382092     0.34200
H3932       H  0.96128771  0.74694925  0.80938835     0.45100
H3933       H  0.98194516  0.69761041  0.70413602     0.38600
H3934       H  0.98482467  0.80978766  0.71562916     0.35100
H3935       H  0.51922397  0.78387564  0.84053901     0.26900
H3936       H  0.91465640  0.82994597  0.75892943     0.32800
H3937       H  0.93164112  0.78820186  0.66460726     0.38700
H3938       H  0.57482341  0.70099629  0.80738126     0.33200
H3939       H  0.58131398  0.67121876  0.72082417     0.32000
H3940       H  0.52280604  0.68139692  0.67313509     0.33700
H3941       H  0.96982646  0.70982059  0.65629538     0.32700
H3942       H  0.99113043  0.70664167  0.83774202     0.36700
H3943       H  0.96217695  0.67001919  0.80178984     0.29400
H3944       H  0.56548188  0.83358099  0.72384336     0.33700
H3945       H  0.01370403  0.77521469  0.65276447     0.36500
H3946       H  0.58318742  0.68504340  0.75089518     0.29100
H3947       H  0.94171185  0.69352116  0.81357643     0.42000
H3948       H  0.93721686  0.82774402  0.81031333     0.32000
H3949       H  0.49387226  0.76554162  0.84749224     0.39700
H3950       H  0.00109884  0.71791992  0.65442200     0.31500
H3951       H  0.93301060  0.83134792  0.73139841     0.31600
H3952       H  0.53668655  0.83389761  0.70780296     0.31800
Zr3953     Zr  0.71214781  0.96155468  0.51086382     2.17500
O3954       O  0.68140200  0.94505365  0.54787900    -0.50500
O3955       O  0.70677025  0.92224100  0.97310870    -0.73700
O3956       O  0.66323166  0.97264695  0.99157199    -0.80500
O3957       O  0.77406267  0.92143111  0.54236566    -0.82300
O3958       O  0.66771458  0.51642427  0.96900433    -0.77900
O3959       O  0.72723172  0.91866941  0.53583742    -0.89500
O3960       O  0.74198434  0.92685550  0.94124764    -0.75500
O3961       O  0.71645688  0.98273118  0.96293641    -0.85000
O3962       O  0.75742721  0.94876003  0.99313295    -0.84700
O3963       O  0.70003205  0.51091097  0.51350179    -0.71400
O3964       O  0.74414404  0.97757677  0.54601905    -0.83600
Zr3965     Zr  0.78995638  0.53778751  0.99330339     2.26400
Zr3966     Zr  0.71424567  0.53262032  0.97264414     2.06300
Zr3967     Zr  0.78913617  0.96691003  0.52610047     2.10000
Zr3968     Zr  0.76318704  0.97126581  0.94879228     1.78800
O3969       O  0.80452035  0.96354680  0.57531761    -0.92400
O3970       O  0.73947228  0.97760779  0.90330946    -0.40200
O3971       O  0.79310388  0.98895319  0.98455188    -0.76800
O3972       O  0.76067750  0.52098536  0.95612858    -0.95500
O3973       O  0.73641502  0.55151874  0.50680100    -0.88800
O3974       O  0.77453661  0.51928508  0.54166045    -0.91600
C3975       C  0.72189325  0.91352936  0.95202239     1.02100
C3976       C  0.75122040  0.90852167  0.54429308     1.15100
C3977       C  0.65117650  0.99408379  0.97947733     1.05800
O3978       O  0.70145073  0.53719106  0.92267762    -0.93800
O3979       O  0.72937968  0.57819148  0.95817350    -0.89500
O3980       O  0.77585772  0.58054443  0.96723098    -0.82700
C3981       C  0.75235443  0.59086137  0.95762560     1.12500
O3982       O  0.68872866  0.51922219  0.58312244    -0.95800
Zr3983     Zr  0.72651564  0.53057625  0.55101160     1.88900
O3984       O  0.78681720  0.57751842  0.53210898    -0.72400
O3985       O  0.68034556  0.56857483  0.98951737    -0.51700
O3986       O  0.68855708  0.56649434  0.55081286    -0.96300
O3987       O  0.74145766  0.52514999  0.60010867    -0.53600
O3988       O  0.74936919  0.57377735  0.56133810    -0.72900
C3989       C  0.77091079  0.58628051  0.55253241     0.99400
O3990       O  0.82674093  0.55168680  0.96096644    -0.61700
O3991       O  0.82432397  0.93096279  0.51212459    -0.56500
O3992       O  0.83063537  0.52799334  0.51525167    -0.93200
O3993       O  0.83572132  0.98276934  0.52121042    -0.91700
O3994       O  0.80258169  0.93783798  0.94161525    -0.92000
O3995       O  0.79592278  0.98321677  0.91165916    -0.90800
C3996       C  0.84214527  0.50683101  0.52823606     1.18300
H3997       H  0.76128793  0.92887138  0.99132905     0.34200
H3998       H  0.76413422  0.53079257  0.93863009     0.45100
H3999       H  0.78638701  0.52603222  0.55646025     0.38600
H4000       H  0.68037739  0.51446222  0.51763518     0.35100
H4001       H  0.71944205  0.97513895  0.90726955     0.26900
H4002       H  0.66777859  0.57266381  0.97316244     0.32800
H4003       H  0.69395712  0.58012961  0.53624115     0.38700
H4004       H  0.81551453  0.94129128  0.95748055     0.33200
H4005       H  0.82873640  0.92020800  0.52968949     0.32000
H4006       H  0.81814804  0.94728573  0.57573162     0.33700
H4007       H  0.76083646  0.53136867  0.60022194     0.32700
H4008       H  0.80484140  0.49966502  0.91377502     0.36700
H4009       H  0.83686977  0.53400162  0.95537947     0.29400
H4010       H  0.66811925  0.93325952  0.53798464     0.33700
H4011       H  0.68718881  0.53464577  0.59709024     0.36500
H4012       H  0.81338929  0.91585896  0.00920129     0.29100
H4013       H  0.81716020  0.55797777  0.94327204     0.42000
H4014       H  0.71730127  0.54615834  0.91351030     0.32000
H4015       H  0.74048288  0.99770895  0.89884530     0.39700
H4016       H  0.74344865  0.50470925  0.60310379     0.31500
H4017       H  0.66099313  0.55830569  0.49158340     0.31600
H4018       H  0.67000466  0.96176359  0.55409839     0.31800
Zr4019     Zr  0.79866046  0.53498903  0.75437504     2.17500
O4020       O  0.83679255  0.55255822  0.78252562    -0.50500
O4021       O  0.79971999  0.57491917  0.72118778    -0.73700
O4022       O  0.84537305  0.51849786  0.73899063    -0.80500
O4023       O  0.74349491  0.57462742  0.79838549    -0.82300
O4024       O  0.82556844  0.99004347  0.70533563    -0.77900
O4025       O  0.79000074  0.57277836  0.78810244    -0.89500
O4026       O  0.76323353  0.57194032  0.69065903    -0.75500
O4027       O  0.79118338  0.51256463  0.71010771    -0.85000
O4028       O  0.75187809  0.54868701  0.74146960    -0.84700
O4029       O  0.79478330  0.99362091  0.75640372    -0.71400
O4030       O  0.76956498  0.51875148  0.79220263    -0.83600
Zr4031     Zr  0.71229024  0.95693047  0.75056548     2.26400
Zr4032     Zr  0.78040449  0.97150091  0.71338278     2.06300
Zr4033     Zr  0.72275114  0.53258762  0.77834636     2.10000
Zr4034     Zr  0.74450371  0.52638014  0.69718928     1.78800
O4035       O  0.70817398  0.53534236  0.82788203    -0.92400
O4036       O  0.77156314  0.52353641  0.65341083    -0.40200
O4037       O  0.71421801  0.51042434  0.73364875    -0.76800
O4038       O  0.73076266  0.97776344  0.70839702    -0.95500
O4039       O  0.76163001  0.95013826  0.75444911    -0.88800
O4040       O  0.72503033  0.97926072  0.79379561    -0.91600
C4041       C  0.78353176  0.58489652  0.70132081     1.02100
C4042       C  0.76817230  0.58437185  0.79984107     1.15100
C4043       C  0.85692360  0.49633769  0.72790609     1.05800
O4044       O  0.77911472  0.97511908  0.66179417    -0.93800
O4045       O  0.76781483  0.92461537  0.70126137    -0.89500
O4046       O  0.72493624  0.91700679  0.71960920    -0.82700
C4047       C  0.74686261  0.90943400  0.70512757     1.12500
O4048       O  0.80926902  0.98903187  0.82981013    -0.95800
Zr4049     Zr  0.77454913  0.97236392  0.79700450     1.88900
O4050       O  0.71926718  0.91842531  0.78450451    -0.72400
O4051       O  0.81806324  0.93514920  0.71227683    -0.51700
O4052       O  0.81959312  0.94642079  0.79383694    -0.96300
O4053       O  0.76256811  0.96983098  0.84723208    -0.53600
O4054       O  0.76199754  0.92438024  0.80389696    -0.72900
C4055       C  0.74074529  0.90986514  0.79914414     0.99400
O4056       O  0.67118515  0.93849344  0.72820927    -0.61700
O4057       O  0.69052717  0.57131287  0.76467363    -0.56500
O4058       O  0.66580942  0.96835922  0.76967871    -0.93200
O4059       O  0.67455715  0.51818521  0.77775391    -0.91700
O4060       O  0.70298598  0.55676975  0.68865806    -0.92000
O4061       O  0.71571301  0.51214366  0.65768148    -0.90800
C4062       C  0.65375142  0.99028695  0.78079786     1.18300
H4063       H  0.74880477  0.56871911  0.74050044     0.34200
H4064       H  0.72456448  0.96813439  0.69172330     0.45100
H4065       H  0.71537597  0.97146874  0.80972614     0.38600
H4066       H  0.81477222  0.99123034  0.75892917     0.35100
H4067       H  0.78952416  0.53195806  0.65770161     0.26900
H4068       H  0.82724165  0.93696536  0.69354867     0.32800
H4069       H  0.81635501  0.93085629  0.78066290     0.38700
H4070       H  0.70313779  0.57081729  0.70402519     0.33200
H4071       H  0.68284747  0.57869227  0.78285757     0.32000
H4072       H  0.69994378  0.55458038  0.83019814     0.33700
H4073       H  0.77548350  0.95492390  0.85506449     0.32700
H4074       H  0.66863151  0.99902757  0.69152876     0.36700
H4075       H  0.67440031  0.94024789  0.70750900     0.29400
H4076       H  0.84920978  0.56173951  0.76895624     0.33700
H4077       H  0.81540535  0.00647926  0.82106002     0.36500
H4078       H  0.70251318  0.58604894  0.75764917     0.29100
H4079       H  0.67238095  0.91815567  0.73206140     0.42000
H4080       H  0.79869922  0.97107489  0.65568083     0.32000
H4081       H  0.77653161  0.50340083  0.65091462     0.39700
H4082       H  0.74404351  0.96165338  0.84793104     0.31500
H4083       H  0.83206328  0.94079389  0.72633573     0.31600
H4084       H  0.84782263  0.53589480  0.78957031     0.31800
O4085       O  0.82605098  0.75221571  0.57606838    -0.74500
O4086       O  0.82989675  0.70897213  0.59662512    -0.53400
C4087       C  0.83933064  0.72853899  0.58113241     0.79200
O4088       O  0.75502966  0.82300312  0.67949212    -0.59100
O4089       O  0.71322521  0.82912945  0.65631234    -0.52100
C4090       C  0.73224045  0.83732152  0.67326964     0.71300
O4091       O  0.82677875  0.75825494  0.67282180    -0.73600
O4092       O  0.83243480  0.71357967  0.65627834    -0.54200
C4093       C  0.84150848  0.73537924  0.66850878     0.77300
O4094       O  0.75833693  0.82220758  0.57264088    -0.58800
O4095       O  0.71550469  0.82862484  0.59395316    -0.51900
C4096       C  0.73538029  0.83674681  0.57783807     0.73900
Zr4097     Zr  0.77995369  0.77593387  0.58481075     2.54700
O4098       O  0.81642088  0.80942123  0.58322940    -0.79400
O4099       O  0.77871502  0.77199379  0.53333077    -0.92800
Zr4100     Zr  0.77839956  0.77724637  0.66898988     2.64700
O4101       O  0.81216057  0.81246959  0.67814209    -0.97700
O4102       O  0.77628462  0.76937381  0.71991217    -0.79800
O4103       O  0.79845225  0.75678442  0.62756441    -0.83100
O4104       O  0.75970528  0.79659186  0.62627537    -2.17900
O4105       O  0.67567514  0.74075689  0.57540122    -0.66500
O4106       O  0.66966386  0.78411831  0.59492009    -0.51100
C4107       C  0.66114868  0.76367106  0.57998346     0.72200
O4108       O  0.74127939  0.67383017  0.67654712    -0.59400
O4109       O  0.78604139  0.66800046  0.66002444    -0.51400
C4110       C  0.76443986  0.65929406  0.67304172     0.74000
O4111       O  0.67579929  0.74391276  0.67986933    -0.70800
O4112       O  0.66934785  0.78531405  0.65607370    -0.49500
C4113       C  0.66116359  0.76629004  0.67317890     0.75400
O4114       O  0.73757237  0.67134960  0.58728276    -0.66200
O4115       O  0.78323633  0.66577358  0.60081673    -0.53400
C4116       C  0.76044480  0.65653777  0.59074347     0.73800
Zr4117     Zr  0.72276008  0.72052733  0.58493893     2.77500
O4118       O  0.69328207  0.68613375  0.56386030    -0.96900
O4119       O  0.73591586  0.72572627  0.53535396    -0.77700
Zr4120     Zr  0.72165519  0.72150786  0.66955323     2.70100
O4121       O  0.68509787  0.68882000  0.67679243    -0.79000
O4122       O  0.72761844  0.72593648  0.72068631    -0.98100
Zr4123     Zr  0.78985176  0.70820994  0.62844153     2.21500
Zr4124     Zr  0.71068281  0.78846638  0.62559480     2.11100
O4125       O  0.70199666  0.73985424  0.62667975    -2.46800
O4126       O  0.74098904  0.70121746  0.62783826    -0.78800
O4127       O  0.73105038  0.76878944  0.58318199    -0.71000
O4128       O  0.77038217  0.72873361  0.67104165    -2.31900
O4129       O  0.77146115  0.72740526  0.58472678    -2.28100
O4130       O  0.72970524  0.76989171  0.66919229    -0.72700
H4131       H  0.76277795  0.81632359  0.62610924     0.79300
H4132       H  0.77902766  0.72018184  0.68770497     0.80400
H4133       H  0.68225218  0.73669958  0.62683462     0.82600
H4134       H  0.78032575  0.71807279  0.56864420     0.80200
H4135       H  0.79525751  0.76171907  0.72495983     0.43200
H4136       H  0.71052031  0.71826687  0.72874795     0.42200
H4137       H  0.67760238  0.68574505  0.65750661     0.41900
H4138       H  0.67578546  0.68696216  0.57513253     0.39800
H4139       H  0.72609572  0.74341985  0.52924933     0.42900
H4140       H  0.78691638  0.75303581  0.52927615     0.37700
H4141       H  0.82824952  0.80482631  0.60003521     0.43800
H4142       H  0.80757281  0.82766970  0.66436514     0.40300
H4143       H  0.68785049  0.69378127  0.54498149     0.45200
H4144       H  0.79304024  0.78465527  0.52665621     0.43900
H4145       H  0.80701100  0.82043611  0.69693739     0.44000
H4146       H  0.74279327  0.71195396  0.72566108     0.44400
O4147       O  0.81789458  0.75763664  0.81937493    -0.74500
O4148       O  0.82496264  0.71389900  0.83830118    -0.53400
C4149       C  0.83287519  0.73473391  0.82340978     0.79200
O4150       O  0.76131667  0.82517827  0.92404469    -0.59100
O4151       O  0.71605680  0.83185425  0.90897629    -0.52100
C4152       C  0.73825794  0.83998147  0.92143842     0.71300
O4153       O  0.82686250  0.75623074  0.92034418    -0.73600
O4154       O  0.83032198  0.71323994  0.89937150    -0.54200
C4155       C  0.84029095  0.73300837  0.91441936     0.77300
O4156       O  0.74713956  0.82260804  0.82115864    -0.58800
O4157       O  0.70722521  0.82965128  0.84747603    -0.51900
C4158       C  0.72512039  0.83737505  0.82899714     0.73900
Zr4159     Zr  0.76970564  0.77592551  0.82908196     2.54700
O4160       O  0.79894354  0.80954005  0.80632812    -0.79400
O4161       O  0.75551097  0.76274213  0.78167999    -0.92800
Zr4162     Zr  0.78088892  0.77874934  0.91234460     2.64700
O4163       O  0.81755709  0.81139246  0.90525597    -0.97700
O4164       O  0.78313657  0.77846042  0.96399419    -0.79800
O4165       O  0.79480572  0.75753937  0.86887710    -0.83100
O4166       O  0.75626801  0.79757328  0.87262372    -2.17900
O4167       O  0.66640800  0.74354940  0.83520598    -0.66500
O4168       O  0.66272490  0.78667188  0.85574549    -0.51100
C4169       C  0.65260892  0.76630339  0.84189395     0.72200
O4170       O  0.74669929  0.67670774  0.93097670    -0.59400
O4171       O  0.78625618  0.66896928  0.90429765    -0.51400
C4172       C  0.76831945  0.66150751  0.92290477     0.74000
O4173       O  0.68136413  0.74724849  0.94079702    -0.70800
O4174       O  0.67002278  0.78674875  0.91502999    -0.49500
C4175       C  0.66508818  0.76871973  0.93456057     0.75400
O4176       O  0.73104390  0.67417680  0.83003760    -0.66200
O4177       O  0.77633037  0.66638870  0.84448695    -0.53400
C4178       C  0.75355391  0.65860035  0.83254900     0.73800
Zr4179     Zr  0.71322791  0.72139583  0.83997294     2.77500
O4180       O  0.67815898  0.68642808  0.84158296    -0.96900
O4181       O  0.70951600  0.72455032  0.78851400    -0.77700
Zr4182     Zr  0.72500941  0.72368685  0.92359820     2.70100
O4183       O  0.69150610  0.69035645  0.93911548    -0.79000
O4184       O  0.74167017  0.73093715  0.97168152    -0.98100
Zr4185     Zr  0.78657717  0.70892227  0.87211687     2.21500
Zr4186     Zr  0.70767123  0.79028836  0.88029603     2.11100
O4187       O  0.69942638  0.74164879  0.88387158    -2.46800
O4188       O  0.73801120  0.70252982  0.87974562    -0.78800
O4189       O  0.72127632  0.76954984  0.83581758    -0.71000
O4190       O  0.77307438  0.73045005  0.91630279    -2.31900
O4191       O  0.76157446  0.72748645  0.83144633    -2.28100
O4192       O  0.73280021  0.77207652  0.92086573    -0.72700
H4193       H  0.75963811  0.81719721  0.87149220     0.79300
H4194       H  0.78381692  0.72221938  0.93184036     0.80400
H4195       H  0.67986159  0.73864149  0.88688591     0.82600
H4196       H  0.76784018  0.71793654  0.81432793     0.80200
H4197       H  0.79572139  0.79349511  0.96875828     0.43200
H4198       H  0.72465318  0.73703994  0.98241687     0.42200
H4199       H  0.68551540  0.68140057  0.92135060     0.41900
H4200       H  0.66436437  0.69321640  0.85601866     0.39800
H4201       H  0.71520937  0.70556811  0.78173948     0.42900
H4202       H  0.77250749  0.75318525  0.77354809     0.37700
H4203       H  0.80580697  0.82089456  0.82216172     0.43800
H4204       H  0.80994785  0.82477484  0.89080143     0.40100
H4205       H  0.66813696  0.68833782  0.82323325     0.45200
H4206       H  0.75332234  0.78067232  0.77126078     0.43900
H4207       H  0.81796449  0.82231317  0.92305834     0.44000
H4208       H  0.74672225  0.71192763  0.97888509     0.44400
C4209       C  0.78725484  0.61378432  0.69080788    -0.15600
C4210       C  0.76451303  0.63016831  0.68372608    -0.30800
H4211       H  0.80793284  0.62205936  0.69049060     0.13400
H4212       H  0.74397814  0.62191045  0.68669689     0.14000
C4213       C  0.72773245  0.86542037  0.68630736    -0.15600
C4214       C  0.74946198  0.88104702  0.69257714    -0.30800
H4215       H  0.70646763  0.87396948  0.68928391     0.13400
H4216       H  0.77049514  0.87300586  0.68732726     0.14000
C4217       C  0.77237975  0.61115050  0.81531631    -0.15600
C4218       C  0.75115527  0.62991594  0.82062007    -0.30800
H4219       H  0.79361111  0.61655549  0.82014216     0.13400
H4220       H  0.73025838  0.62460007  0.81426738     0.14000
C4221       C  0.74262008  0.88108329  0.81068037    -0.15600
C4222       C  0.72062256  0.86567820  0.81645799    -0.30800
H4223       H  0.76350916  0.87248653  0.81574809     0.13400
H4224       H  0.69944246  0.87461754  0.81391549     0.14000
C4225       C  0.75055645  0.61952326  0.94560962    -0.15600
C4226       C  0.77247858  0.63317261  0.93567212    -0.30800
H4227       H  0.72968654  0.62945805  0.94379345     0.13400
H4228       H  0.79323874  0.62285801  0.93542311     0.14000
C4229       C  0.73918355  0.86874184  0.93260653    -0.15600
C4230       C  0.71702873  0.88554606  0.94012543    -0.30800
H4231       H  0.76001669  0.87622229  0.93583589     0.13400
H4232       H  0.69604441  0.87799990  0.93961119     0.14000
C4233       C  0.75888263  0.62686535  0.58308424    -0.15600
C4234       C  0.77740125  0.61322655  0.56595317    -0.30800
H4235       H  0.73925986  0.61747475  0.58792418     0.13400
H4236       H  0.79607157  0.62340156  0.55925761     0.14000
C4237       C  0.75358503  0.87983148  0.55664121    -0.15600
C4238       C  0.73160851  0.86510522  0.56475508    -0.30800
H4239       H  0.77461236  0.87068987  0.55982483     0.13400
H4240       H  0.71055216  0.87460881  0.56319534     0.14000
C4241       C  0.63267683  0.76991820  0.68579056    -0.15600
C4242       C  0.61906762  0.74765966  0.69504672    -0.30800
H4243       H  0.62241493  0.79065475  0.68642992     0.13400
H4244       H  0.62902105  0.72689457  0.69259201     0.14000
C4245       C  0.87125224  0.73584270  0.67712367    -0.15600
C4246       C  0.88594465  0.71486548  0.69039576    -0.30800
H4247       H  0.88070157  0.75584560  0.67479965     0.13400
H4248       H  0.87598266  0.69563225  0.69544690     0.14000
C4249       C  0.61053112  0.78298522  0.81425941    -0.15600
C4250       C  0.62246276  0.76694382  0.83488139    -0.30800
H4251       H  0.62260146  0.79881655  0.80414634     0.13400
H4252       H  0.61106006  0.74983452  0.84346423     0.14000
C4253       C  0.87502923  0.75423767  0.80077806    -0.15600
C4254       C  0.86140883  0.73202977  0.81034747    -0.30800
H4255       H  0.86488640  0.77496215  0.80267383     0.13400
H4256       H  0.87195032  0.71141316  0.80978311     0.14000
C4257       C  0.61418996  0.78111178  0.93846708    -0.15600
C4258       C  0.63837219  0.77168611  0.95062315    -0.30800
H4259       H  0.61420286  0.78789214  0.91642243     0.13400
H4260       H  0.63763516  0.76184115  0.97143224     0.14000
C4261       C  0.86917911  0.72910017  0.92630365    -0.15600
C4262       C  0.88360865  0.75137615  0.93419041    -0.30800
H4263       H  0.87851729  0.70809344  0.92869769     0.13400
H4264       H  0.87446418  0.77222600  0.93006708     0.14000
C4265       C  0.61940980  0.74381851  0.55806756    -0.15600
C4266       C  0.63263392  0.76640103  0.56721555    -0.30800
H4267       H  0.62944250  0.72315677  0.56102006     0.13400
H4268       H  0.62227685  0.78705675  0.56565451     0.14000
C4269       C  0.88383122  0.74508442  0.56309334    -0.15600
C4270       C  0.86763329  0.72358286  0.56837336    -0.30800
H4271       H  0.87604208  0.76595071  0.56913644     0.13400
H4272       H  0.87570128  0.70230877  0.56466304     0.14000
C4273       C  0.59885623  0.99425586  0.78354008    -0.12500
C4274       C  0.62398195  0.99131022  0.78370316    -0.14000
C4275       C  0.88678431  0.49370248  0.72794390    -0.12500
C4276       C  0.91158596  0.49148167  0.73215291    -0.14000
C4277       C  0.50216312  0.89806651  0.78191747    -0.12500
C4278       C  0.50425539  0.87315556  0.77990816    -0.14000
C4279       C  0.00035277  0.59675483  0.74381390    -0.12500
C4280       C  0.99769409  0.62171081  0.74193004    -0.14000
C4281       C  0.62153335  0.99528121  0.97721319    -0.12500
C4282       C  0.59655175  0.99865172  0.97807211    -0.14000
C4283       C  0.89655524  0.50466634  0.53260085    -0.12500
C4284       C  0.87153171  0.50627694  0.53219515    -0.14000
C4285       C  0.50180009  0.90050654  0.98360097    -0.12500
C4286       C  0.50432041  0.87547301  0.98253939    -0.14000
C4287       C  0.99132045  0.62806883  0.53947867    -0.12500
C4288       C  0.99426538  0.60308031  0.53802242    -0.14000
loop_ 
_geom_bond_atom_site_label_1 
_geom_bond_atom_site_label_2 
_geom_bond_distance 
_geom_bond_site_symmetry_2 
_ccdc_geom_bond_type 
N1            C6   1.349       .  A
N1          C541   1.349       .  A
N1           H33   1.039       .  S
N2            C9   1.349       .  A
N2           C10   1.348       .  A
N3            C8   1.348       .  A
N3          C543   1.346       .  A
N3           H34   1.037       .  S
N4           C11   1.347   1_556  A
N4           C12   1.348       .  A
C5          N537   1.351       .  A
C5           C13   1.387       .  A
C5           C21   1.405       .  A
C6           C22   1.406       .  A
C6           C14   1.389       .  A
C7          N539   1.350       .  A
C7           C15   1.389       .  A
C7         C1096   1.410       .  A
C8           C16   1.387       .  A
C8         C2167   1.404       .  A
C9           C17   1.387       .  A
C9         C2165   1.409       .  A
C10          C24   1.408   1_545  A
C10          C18   1.387       .  A
C11          C19   1.386       .  A
C11        C1094   1.403       .  A
C12          C20   1.387       .  A
C12          C23   1.407       .  A
C13         C550   1.372       .  A
C13          H25   1.082       .  S
C14         C549   1.372       .  A
C14          H26   1.083       .  S
C15         C552   1.374       .  A
C15          H27   1.082       .  S
C16         C551   1.374       .  A
C16          H28   1.083       .  S
C17          C18   1.375       .  A
C17          H29   1.083       .  S
C18          H30   1.082       .  S
C19          C20   1.372   1_554  A
C19          H31   1.082       .  S
C20          H32   1.082       .  S
C21        C2153   1.411       .  A
C21        C1072   1.446       .  S
C22        C1083   1.407   1_545  A
C22         C531   1.438       .  S
C23        C2152   1.404       .  A
C23        C3213   1.437       .  S
C24        C1079   1.409       .  A
C24        C1602   1.440       .  S
N35          C40   1.349       .  A
N35          C39   1.349       .  A
N35          H67   1.038       .  S
N36          C43   1.351       .  A
N36          C44   1.350       .  A
N37          C42   1.349       .  A
N37          C41   1.350       .  A
N37          H68   1.037       .  S
N38          C45   1.350       .  A
N38          C46   1.351       .  A
C39          C47   1.388       .  A
C39          C55   1.404       .  A
C40          C56   1.407   1_545  A
C40          C48   1.389       .  A
C41          C49   1.387       .  A
C41        C1130   1.406       .  A
C42          C50   1.388       .  A
C42        C2201   1.408   1_455  A
C43          C51   1.387       .  A
C43        C2199   1.410       .  A
C44          C58   1.409       .  A
C44          C52   1.387       .  A
C45          C53   1.387       .  A
C45        C1128   1.413       .  A
C46          C54   1.387       .  A
C46          C57   1.412       .  A
C47          C48   1.370       .  A
C47          H59   1.083       .  S
C48          H60   1.082       .  S
C49          C50   1.373       .  A
C49          H61   1.083       .  S
C50          H62   1.082       .  S
C51          C52   1.374       .  A
C51          H63   1.082       .  S
C52          H64   1.082       .  S
C53          C54   1.379       .  A
C53          H65   1.082       .  S
C54          H66   1.083       .  S
C55        C2187   1.409       .  A
C55         C527   1.440       .  S
C56        C1117   1.409       .  A
C56         C524   1.441       .  S
C57        C2186   1.405       .  A
C57        C2669   1.445       .  S
C58        C1113   1.414   1_545  A
C58        C1593   1.447       .  S
Zr69         O70   2.441       .  S
Zr69         O75   2.463       .  S
Zr69        O607   2.466       .  S
Zr69        O608   2.453       .  S
Zr69         O80   2.413       .  S
Zr69        O613   2.397       .  S
Zr69        O614   2.381       .  S
Zr69       O2223   2.423       .  S
O70         H126   0.990       .  S
O70         H134   0.990       .  S
O71        Zr605   2.454   1_554  S
O71          C91   1.286       .  A
O72        Zr605   2.439   1_554  S
O72          C93   1.284       .  A
O73         Zr83   2.441       .  S
O73          C92   1.285       .  A
O74         Zr82   2.423       .  S
O74        C2237   1.279   1_455  A
O75          C92   1.289       .  A
O76         Zr84   2.434       .  S
O76          C91   1.285       .  A
O77         Zr84   2.375       .  S
O77        Zr605   2.380   1_554  S
O77       Zr2226   2.398       .  S
O78         Zr84   2.369       .  S
O78        Zr605   2.379   1_554  S
O78        Zr619   2.378   1_554  S
O78         H113   0.966       .  S
O79         Zr99   2.396       .  S
O79       Zr2213   2.416   1_455  S
O79        Zr618   2.401       .  S
O79         H116   0.967       .  S
O80         Zr83   2.387       .  S
O80       Zr2243   2.405       .  S
Zr81        O106   2.442       .  S
Zr81         O96   2.443       .  S
Zr81        O636   2.431   1_554  S
Zr81        O644   2.421   1_554  S
Zr81         O88   2.407       .  S
Zr81       O2231   2.402   1_455  S
Zr81        O625   2.373   1_554  S
Zr81        O626   2.389   1_554  S
Zr82        O101   2.441       .  S
Zr82         O94   2.437       .  S
Zr82         O95   2.433       .  S
Zr82         O88   2.389       .  S
Zr82       O2221   2.397   1_455  S
Zr82        O615   2.402   1_554  S
Zr82        O625   2.383   1_554  S
Zr83         O85   2.435       .  S
Zr83        O107   2.440       .  S
Zr83        O109   2.408       .  S
Zr83        O614   2.375       .  S
Zr83        O623   2.395       .  S
Zr83       O2234   2.397       .  S
Zr84        O110   2.437       .  S
Zr84        O111   2.433       .  S
Zr84         O86   2.424       .  S
Zr84         O87   2.396       .  S
Zr84       O2232   2.404       .  S
O85         H122   0.990       .  S
O86         H117   0.990       .  S
O86         H131   0.990       .  S
O87       Zr2225   2.412       .  S
O87        Zr619   2.398   1_554  S
O88       Zr2228   2.399   1_455  S
O88         H114   0.966       .  S
O89         Zr99   2.364       .  S
O89        Zr617   2.372       .  S
O89        Zr618   2.373       .  S
O90         Zr99   2.374       .  S
O90        Zr617   2.390       .  S
O90       Zr2227   2.395   1_455  S
O90         H115   0.966       .  S
C91         C517   1.490       .  S
C92         C510   1.490       .  S
C93         C535   1.424       .  S
C93        O2218   1.277       .  A
O94         H130   0.990       .  S
O95          C97   1.284       .  A
O96          C97   1.287       .  A
C97         C513   1.479       .  S
O98         Zr99   2.433       .  S
O98         H127   0.990   1_455  S
Zr99        O102   2.438       .  S
Zr99        O103   2.434       .  S
Zr99        O104   2.438       .  S
Zr99       O2224   2.402   1_455  S
O100       Zr617   2.445       .  S
O100        C105   1.285       .  A
O101        H118   0.990       .  S
O101        H669   0.990       .  S
O102        H119   0.990       .  S
O103        H123   0.990       .  S
O103        H132   0.989       .  S
O104        C105   1.287       .  A
C105        C505   1.490       .  S
O106        H125   0.990       .  S
O106        H129   0.990       .  S
O107        H121   0.990       .  S
O107        H664   0.990       .  S
O108       Zr617   2.421       .  S
O108        C112   1.282   1_455  A
O109       C2256   1.278       .  A
O110        H120   0.990       .  S
O111       H2268   0.990       .  S
C112        C534   1.428       .  S
C112       O2253   1.283       .  A
H124       O2255   0.990   1_455  S
H128        O643   0.990   1_554  S
H133        O637   0.990       .  S
Zr135       O136   2.441       .  S
Zr135       O137   2.476       .  S
Zr135       O138   2.465       .  S
Zr135       O141   2.455       .  S
Zr135       O143   2.391       .  S
Zr135       O144   2.384       .  S
Zr135       O146   2.419       .  S
Zr135      O2289   2.422   1_455  S
O136        H192   0.990       .  S
O136        H200   0.990       .  S
O137        C157   1.291       .  A
O138        C159   1.289       .  A
O139       Zr149   2.438       .  S
O139        C158   1.285       .  A
O140       Zr148   2.401       .  S
O140       C2303   1.277       .  A
O141        C158   1.288       .  A
O142       Zr150   2.419       .  S
O142        C157   1.281       .  A
O143       Zr150   2.380       .  S
O143      Zr2292   2.401   1_455  S
O144       Zr149   2.376       .  S
O144       Zr150   2.376       .  S
O144        H179   0.965       .  S
O145       Zr148   2.402       .  S
O145       Zr165   2.401       .  S
O145      Zr2279   2.423       .  S
O145        H182   0.966       .  S
O146       Zr149   2.390       .  S
O146      Zr2309   2.408   1_455  S
Zr147       O172   2.445       .  S
Zr147       O166   2.437       .  S
Zr147       O174   2.429       .  S
Zr147       O162   2.449       .  S
Zr147       O154   2.402       .  S
Zr147       O155   2.375       .  S
Zr147       O156   2.391       .  S
Zr147      O2297   2.404       .  S
Zr148       O167   2.438       .  S
Zr148       O160   2.434       .  S
Zr148       O161   2.431       .  S
Zr148       O154   2.384       .  S
Zr148       O155   2.376       .  S
Zr148      O2287   2.403       .  S
Zr149       O151   2.435       .  S
Zr149       O173   2.439       .  S
Zr149       O175   2.412       .  S
Zr149       O153   2.396       .  S
Zr149      O2300   2.392   1_455  S
Zr150       O176   2.435       .  S
Zr150       O177   2.436       .  S
Zr150       O152   2.425       .  S
Zr150       O153   2.391       .  S
Zr150      O2298   2.396   1_455  S
O151        H188   0.990       .  S
O152        H183   0.990       .  S
O152        H197   0.990       .  S
O153      Zr2291   2.406   1_455  S
O154      Zr2294   2.394       .  S
O154        H180   0.966       .  S
O155       Zr165   2.365       .  S
O156       Zr165   2.375       .  S
O156      Zr2293   2.392       .  S
O156        H181   0.965       .  S
C157        C497   1.485       .  S
C158        C490   1.488       .  S
C159        C526   1.434       .  S
C159       O2284   1.277   1_455  A
O160        H196   0.990       .  S
O161        C163   1.284       .  A
O162        C163   1.287       .  A
C163        C501   1.482       .  S
O164       Zr165   2.439       .  S
O164        H193   0.990       .  S
Zr165       O168   2.440       .  S
Zr165       O169   2.431       .  S
Zr165       O170   2.452       .  S
Zr165      O2290   2.412       .  S
O166        C171   1.284       .  A
O167        H184   0.990       .  S
O167        H199   0.990       .  S
O168        H185   0.990       .  S
O169        H189   0.990       .  S
O169        H198   0.989       .  S
O170        C171   1.289       .  A
C171        C494   1.490       .  S
O172        H191   0.990       .  S
O172        H195   0.990       .  S
O173        H187   0.990       .  S
O173        H194   0.990       .  S
O174        C178   1.283       .  A
O175       C2322   1.279   1_455  A
O176        H186   0.989       .  S
O177       H2334   0.990   1_455  S
C178        C528   1.422       .  S
C178       O2319   1.278       .  A
H190       O2321   0.990       .  S
Zr201       O202   2.438       .  S
Zr201       O207   2.449       .  S
Zr201       O739   2.457   1_554  S
Zr201       O740   2.437   1_554  S
Zr201       O212   2.411       .  S
Zr201       O745   2.382   1_554  S
Zr201       O746   2.378   1_554  S
Zr201      O1283   2.418       .  S
O202        H258   0.991       .  S
O202        H266   0.990       .  S
O203       Zr737   2.465       .  S
O203        C223   1.289       .  A
O204       Zr737   2.435       .  S
O204        C225   1.283       .  A
O205       Zr215   2.431       .  S
O205        C224   1.284       .  A
O206       Zr214   2.408       .  S
O206       C1297   1.278   1_545  A
O207        C224   1.287       .  A
O208       Zr216   2.442       .  S
O208        C223   1.286       .  A
O209       Zr216   2.374       .  S
O209       Zr737   2.387       .  S
O209      Zr1286   2.403       .  S
O210       Zr216   2.373       .  S
O210       Zr737   2.378       .  S
O210       Zr751   2.375       .  S
O210        H245   0.964       .  S
O211       Zr231   2.396       .  S
O211      Zr1273   2.419   1_545  S
O211       Zr750   2.401   1_554  S
O211        H248   0.966       .  S
O212       Zr215   2.384       .  S
O212      Zr1303   2.403       .  S
Zr213       O238   2.443       .  S
Zr213       O228   2.462       .  S
Zr213       O768   2.442       .  S
Zr213       O776   2.437       .  S
Zr213       O220   2.407       .  S
Zr213      O1291   2.407   1_545  S
Zr213       O757   2.371       .  S
Zr213       O758   2.389       .  S
Zr214       O233   2.438       .  S
Zr214       O226   2.434       .  S
Zr214       O227   2.427       .  S
Zr214       O220   2.391       .  S
Zr214      O1281   2.395   1_545  S
Zr214       O747   2.399       .  S
Zr214       O757   2.377       .  S
Zr215       O217   2.434       .  S
Zr215       O239   2.438       .  S
Zr215       O241   2.403       .  S
Zr215       O746   2.377   1_554  S
Zr215       O755   2.395   1_554  S
Zr215      O1294   2.393       .  S
Zr216       O242   2.435       .  S
Zr216       O243   2.436       .  S
Zr216       O218   2.435       .  S
Zr216       O219   2.398       .  S
Zr216      O1292   2.412       .  S
O217        H254   0.990       .  S
O218        H249   0.990       .  S
O218        H263   0.990       .  S
O219      Zr1285   2.409       .  S
O219       Zr751   2.397       .  S
O220      Zr1288   2.406   1_545  S
O220        H246   0.966       .  S
O221       Zr231   2.368       .  S
O221       Zr749   2.372   1_554  S
O221       Zr750   2.381   1_554  S
O222       Zr231   2.373       .  S
O222       Zr749   2.389   1_554  S
O222      Zr1287   2.392   1_545  S
O222        H247   0.966       .  S
C223        C478   1.490       .  S
C224        C485   1.482       .  S
C225        C529   1.425       .  S
C225       O1278   1.279       .  A
O226        H262   0.990       .  S
O227        C229   1.284       .  A
O228        C229   1.290       .  A
C229        C473   1.485       .  S
O230       Zr231   2.440       .  S
O230        H259   0.990       .  S
Zr231       O234   2.436       .  S
Zr231       O235   2.425       .  S
Zr231       O236   2.450       .  S
Zr231      O1284   2.408   1_545  S
O232       Zr749   2.450   1_554  S
O232        C237   1.287       .  A
O233        H250   0.990       .  S
O233        H801   0.990       .  S
O234        H251   0.990       .  S
O235        H255   0.989       .  S
O235        H264   0.990       .  S
O236        C237   1.289       .  A
C237        C482   1.497       .  S
O238        H257   0.990       .  S
O238        H261   0.990       .  S
O239        H253   0.990       .  S
O239        H796   0.990       .  S
O240       Zr749   2.430   1_554  S
O240        C244   1.284       .  A
O241       C1316   1.278       .  A
O242        H252   0.990       .  S
O243       H1328   0.990       .  S
C244        C532   1.422       .  S
C244       O1313   1.278   1_545  A
H256       O1315   0.990       .  S
H260        O775   0.990       .  S
H265        O769   0.990       .  S
Zr267       O268   2.442       .  S
Zr267       O269   2.474       .  S
Zr267       O270   2.440       .  S
Zr267       O273   2.433       .  S
Zr267       O275   2.383       .  S
Zr267       O276   2.379       .  S
Zr267       O278   2.414       .  S
Zr267      O1349   2.416   1_545  S
O268        H324   0.990       .  S
O268        H332   0.991       .  S
O269        C289   1.290       .  A
O270        C291   1.284   1_545  A
O271       Zr281   2.467       .  S
O271        C290   1.292       .  A
O272       Zr280   2.418       .  S
O272       C1363   1.278       .  A
O273        C290   1.283       .  A
O274       Zr282   2.421       .  S
O274        C289   1.283       .  A
O275       Zr282   2.377       .  S
O275      Zr1352   2.402   1_545  S
O276       Zr281   2.379       .  S
O276       Zr282   2.373       .  S
O276        H311   0.965       .  S
O277       Zr280   2.411       .  S
O277       Zr297   2.387       .  S
O277      Zr1339   2.426       .  S
O277        H314   0.964       .  S
O278       Zr281   2.390       .  S
O278      Zr1369   2.404   1_545  S
Zr279       O304   2.441       .  S
Zr279       O298   2.426       .  S
Zr279       O306   2.422       .  S
Zr279       O294   2.444       .  S
Zr279       O286   2.406       .  S
Zr279       O287   2.374       .  S
Zr279       O288   2.388       .  S
Zr279      O1357   2.402       .  S
Zr280       O299   2.443       .  S
Zr280       O292   2.435       .  S
Zr280       O293   2.440       .  S
Zr280       O286   2.384       .  S
Zr280       O287   2.382       .  S
Zr280      O1347   2.396       .  S
Zr281       O283   2.434       .  S
Zr281       O305   2.439       .  S
Zr281       O307   2.434       .  S
Zr281       O285   2.404       .  S
Zr281      O1360   2.401   1_545  S
Zr282       O308   2.435       .  S
Zr282       O309   2.434       .  S
Zr282       O284   2.423       .  S
Zr282       O285   2.393       .  S
Zr282      O1358   2.405   1_545  S
O283        H320   0.990       .  S
O284        H315   0.990       .  S
O284        H329   0.989       .  S
O285      Zr1351   2.412   1_545  S
O286      Zr1354   2.401       .  S
O286        H312   0.966       .  S
O287       Zr297   2.365       .  S
O288       Zr297   2.368       .  S
O288      Zr1353   2.391       .  S
O288        H313   0.966       .  S
C289        C457   1.495       .  S
C290        C465   1.495       .  S
C291        C523   1.425       .  S
C291       O1344   1.277       .  A
O292        H328   0.990       .  S
O293        C295   1.284       .  A
O294        C295   1.286       .  A
C295        C462   1.483       .  S
O296       Zr297   2.439       .  S
O296        H325   0.990       .  S
Zr297       O300   2.437       .  S
Zr297       O301   2.432       .  S
Zr297       O302   2.445       .  S
Zr297      O1350   2.411       .  S
O298        C303   1.282       .  A
O299        H316   0.990       .  S
O299        H331   0.990       .  S
O300        H317   0.990       .  S
O301        H321   0.990       .  S
O301        H330   0.990       .  S
O302        C303   1.288       .  A
C303        C469   1.485       .  S
O304        H323   0.990       .  S
O304        H327   0.990       .  S
O305        H319   0.990       .  S
O305        H326   0.990       .  S
O306        C310   1.282       .  A
O307       C1382   1.284       .  A
O308        H318   0.990       .  S
O309       H1394   0.990       .  S
C310        C522   1.421       .  S
C310       O1379   1.280       .  A
H322       O1381   0.990       .  S
O333       Zr345   2.429       .  S
O333        C335   1.285       .  A
O334       Zr371   2.464       .  S
O334        C335   1.293       .  A
C335        C518   1.481       .  S
O336       Zr348   2.459       .  S
O336        C338   1.291       .  A
O337       Zr372   2.435       .  S
O337        C338   1.288       .  A
C338        C461   1.487       .  S
O339       Zr348   2.438       .  S
O339        C341   1.286       .  A
O340       Zr371   2.459       .  S
O340        C341   1.292       .  A
C341        C493   1.482       .  S
O342       Zr345   2.447       .  S
O342        C344   1.290       .  A
O343       Zr372   2.447       .  S
O343        C344   1.289       .  A
C344        C486   1.487       .  S
Zr345       O346   2.435       .  S
Zr345       O347   2.432       .  S
Zr345       O351   2.362       .  S
Zr345       O352   2.371       .  S
Zr345       O375   2.368       .  S
Zr345       O377   2.385       .  S
O346        H389   0.990       .  S
O347        H388   0.990       .  S
O347        H392   0.990       .  S
Zr348       O349   2.439       .  S
Zr348       O350   2.433       .  S
Zr348       O352   2.372       .  S
Zr348       O351   2.366       .  S
Zr348       O376   2.380       .  S
Zr348       O378   2.368       .  S
O349        H390   0.990       .  S
O349        H393   0.990       .  S
O350        H383   0.990       .  S
O351       Zr371   2.390       .  S
O352       Zr372   2.391       .  S
O352        H379   0.966       .  S
O353       Zr365   2.457       .  S
O353        C355   1.290       .  A
O354       Zr372   2.431       .  S
O354        C355   1.286       .  A
C355        C514   1.484       .  S
O356       Zr368   2.443       .  S
O356        C358   1.288       .  A
O357       Zr371   2.461       .  S
O357        C358   1.292       .  A
C358        C458   1.485       .  S
O359       Zr368   2.457       .  S
O359        C361   1.292       .  A
O360       Zr372   2.445       .  S
O360        C361   1.290       .  A
C361        C489   1.491       .  S
O362       Zr365   2.439       .  S
O362        C364   1.287       .  A
O363       Zr371   2.475       .  S
O363        C364   1.295       .  A
C364        C481   1.490       .  S
Zr365       O366   2.441       .  S
Zr365       O367   2.434       .  S
Zr365       O373   2.374       .  S
Zr365       O374   2.371       .  S
Zr365       O377   2.379       .  S
Zr365       O375   2.370       .  S
O366        H386   0.990       .  S
O366        H391   0.990       .  S
O367        H387   0.990       .  S
Zr368       O369   2.433       .  S
Zr368       O370   2.432       .  S
Zr368       O374   2.369       .  S
Zr368       O373   2.373       .  S
Zr368       O378   2.368       .  S
Zr368       O376   2.380       .  S
O369        H385   0.990       .  S
O370        H384   0.990       .  S
O370        H394   0.990       .  S
Zr371       O374   2.392       .  S
Zr371       O376   2.410       .  S
Zr371       O377   2.409       .  S
Zr372       O373   2.395       .  S
Zr372       O375   2.392       .  S
Zr372       O378   2.389       .  S
O373        H381   0.966       .  S
O376        H380   0.967       .  S
O377        H382   0.967       .  S
O395       Zr407   2.441       .  S
O395        C397   1.289       .  A
O396       Zr433   2.447       .  S
O396        C397   1.290       .  A
C397        C502   1.488       .  S
O398       Zr410   2.462       .  S
O398        C400   1.291       .  A
O399       Zr434   2.452       .  S
O399        C400   1.291       .  A
C400        C477   1.490       .  S
O401       Zr410   2.446       .  S
O401        C403   1.290       .  A
O402       Zr433   2.462       .  S
O402        C403   1.293       .  A
C403        C509   1.495       .  S
O404       Zr407   2.427       .  S
O404        C406   1.285       .  A
O405       Zr434   2.467       .  S
O405        C406   1.294       .  A
C406        C470   1.476       .  S
Zr407       O408   2.434       .  S
Zr407       O409   2.432       .  S
Zr407       O413   2.361       .  S
Zr407       O414   2.371       .  S
Zr407       O437   2.377       .  S
Zr407       O439   2.372       .  S
O408        H451   0.991       .  S
O409        H450   0.990       .  S
O409        H454   0.990       .  S
Zr410       O411   2.437       .  S
Zr410       O412   2.428       .  S
Zr410       O414   2.354       .  S
Zr410       O413   2.374       .  S
Zr410       O438   2.375       .  S
Zr410       O440   2.378       .  S
O411        H452   0.991       .  S
O411        H455   0.990       .  S
O412        H445   0.990       .  S
O413       Zr433   2.385       .  S
O414       Zr434   2.393       .  S
O414        H441   0.964       .  S
O415       Zr427   2.456       .  S
O415        C417   1.291       .  A
O416       Zr434   2.445       .  S
O416        C417   1.289       .  A
C417        C498   1.488       .  S
O418       Zr430   2.463       .  S
O418        C420   1.293       .  A
O419       Zr433   2.433       .  S
O419        C420   1.288       .  A
C420        C474   1.489       .  S
O421       Zr430   2.437       .  S
O421        C423   1.287       .  A
O422       Zr434   2.469       .  S
O422        C423   1.294       .  A
C423        C506   1.479       .  S
O424       Zr427   2.432       .  S
O424        C426   1.286       .  A
O425       Zr433   2.478       .  S
O425        C426   1.296       .  A
C426        C466   1.492       .  S
Zr427       O428   2.438       .  S
Zr427       O429   2.431       .  S
Zr427       O435   2.355       .  S
Zr427       O436   2.372       .  S
Zr427       O439   2.375       .  S
Zr427       O437   2.372       .  S
O428        H448   0.990       .  S
O428        H453   0.990       .  S
O429        H449   0.990       .  S
Zr430       O431   2.434       .  S
Zr430       O432   2.433       .  S
Zr430       O436   2.361       .  S
Zr430       O435   2.380       .  S
Zr430       O440   2.384       .  S
Zr430       O438   2.370       .  S
O431        H447   0.990       .  S
O432        H446   0.990       .  S
O432        H456   0.990       .  S
Zr433       O436   2.382       .  S
Zr433       O438   2.402       .  S
Zr433       O439   2.396       .  S
Zr434       O435   2.399       .  S
Zr434       O437   2.399       .  S
Zr434       O440   2.405       .  S
O435        H443   0.965       .  S
O438        H442   0.967       .  S
O439        H444   0.967       .  S
C457        C458   1.352       .  D
C457        H459   1.086       .  S
C458        H460   1.088       .  S
C461        C462   1.347       .  D
C461        H463   1.087       .  S
C462        H464   1.087       .  S
C465        C466   1.345       .  D
C465        H467   1.086       .  S
C466        H468   1.088       .  S
C469        C470   1.341       .  D
C469        H471   1.086       .  S
C470        H472   1.087       .  S
C473        C474   1.347       .  D
C473        H475   1.087       .  S
C474        H476   1.086       .  S
C477        C478   1.350       .  D
C477        H479   1.088       .  S
C478        H480   1.086       .  S
C481        C482   1.348       .  D
C481        H483   1.087       .  S
C482        H484   1.086       .  S
C485        C486   1.348       .  D
C485        H487   1.087       .  S
C486        H488   1.086       .  S
C489        C490   1.350       .  D
C489        H491   1.086       .  S
C490        H492   1.087       .  S
C493        C494   1.345       .  D
C493        H495   1.087       .  S
C494        H496   1.086       .  S
C497        C498   1.346       .  D
C497        H499   1.089       .  S
C498        H500   1.086       .  S
C501        C502   1.349       .  D
C501        H503   1.087       .  S
C502        H504   1.086       .  S
C505        C506   1.345       .  D
C505        H507   1.086       .  S
C506        H508   1.088       .  S
C509        C510   1.352       .  D
C509        H511   1.086       .  S
C510        H512   1.087       .  S
C513        C514   1.346       .  D
C513        H515   1.087       .  S
C514        H516   1.087       .  S
C517        C518   1.346       .  D
C517        H519   1.086       .  S
C518        H520   1.088       .  S
C521       C1130   1.439       .  S
C521        C522   1.199       .  T
C523        C524   1.201       .  T
C525       C2201   1.449       .  S
C525        C526   1.206   1_655  T
C527        C528   1.199       .  T
C529        C530   1.201       .  T
C530       C1096   1.441       .  S
C531        C532   1.199       .  T
C533       C2703   1.444       .  S
C533        C534   1.202       .  T
C535        C536   1.200       .  T
C536        C557   1.440       .  S
N537        C542   1.347       .  A
N537        H569   1.039       .  S
N538        C545   1.351       .  A
N538        C546   1.349   1_554  A
N539        C544   1.352       .  A
N539        H570   1.037       .  S
N540        C547   1.348       .  A
N540        C548   1.350       .  A
C541        C549   1.388       .  A
C541        C557   1.405       .  A
C542        C558   1.403   1_545  A
C542        C550   1.387       .  A
C543        C551   1.389       .  A
C543       C1632   1.404       .  A
C544       C2703   1.410   1_455  A
C544        C552   1.387       .  A
C545       C2701   1.411   1_455  A
C545        C553   1.386       .  A
C546        C560   1.412       .  A
C546        C554   1.388   1_556  A
C547        C555   1.386       .  A
C547       C1630   1.407       .  A
C548        C556   1.387       .  A
C548        C559   1.410       .  A
C549        H561   1.082       .  S
C550        H562   1.082       .  S
C551        H563   1.083       .  S
C552        H564   1.082       .  S
C553        C554   1.377       .  A
C553        H565   1.082       .  S
C554        H566   1.083       .  S
C555        C556   1.376       .  A
C555        H567   1.082       .  S
C556        H568   1.082       .  S
C557       C2689   1.408       .  A
C558       C1619   1.407       .  A
C558       C1067   1.434   1_565  S
C559       C2688   1.404       .  A
C559       C2677   1.441       .  S
C560       C1615   1.406   1_545  A
C560       C2138   1.439       .  S
N571        C576   1.350       .  A
N571        C575   1.348       .  A
N571        H603   1.040       .  S
N572        C579   1.347       .  A
N572        C580   1.349       .  A
N573        C578   1.352       .  A
N573        C577   1.353       .  A
N573        H604   1.039       .  S
N574        C581   1.352       .  A
N574        C582   1.351       .  A
C575        C583   1.388       .  A
C575        C591   1.405       .  A
C576        C592   1.404   1_545  A
C576        C584   1.387       .  A
C577        C585   1.389       .  A
C577       C1666   1.413       .  A
C578       C2737   1.410       .  A
C578        C586   1.387       .  A
C579       C2735   1.406   1_455  A
C579        C587   1.387       .  A
C580        C594   1.407       .  A
C580        C588   1.387       .  A
C581        C589   1.386       .  A
C581       C1664   1.410       .  A
C582        C590   1.388       .  A
C582        C593   1.415       .  A
C583        C584   1.372       .  A
C583        H595   1.082       .  S
C584        H596   1.083       .  S
C585        C586   1.374       .  A
C585        H597   1.082       .  S
C586        H598   1.082       .  S
C587        C588   1.373       .  A
C587        H599   1.083       .  S
C588        H600   1.083       .  S
C589        C590   1.375       .  A
C589        H601   1.083       .  S
C590        H602   1.082       .  S
C591       C2723   1.408       .  A
C591       C1063   1.437       .  S
C592       C1653   1.406       .  A
C592       C1060   1.441       .  S
C593       C2722   1.413       .  A
C593       C3205   1.449       .  S
C594       C1649   1.408   1_545  A
C594       C2129   1.442       .  S
Zr605       O606   2.440       .  S
Zr605       O611   2.438       .  S
Zr605      O2759   2.410       .  S
Zr605       O616   2.415       .  S
O606        H662   0.991       .  S
O606        H670   0.990       .  S
O607        C627   1.290       .  A
O608        C629   1.286       .  A
O609       Zr619   2.437       .  S
O609        C628   1.285       .  A
O610       Zr618   2.414       .  S
O610       C2773   1.279   1_455  A
O611        C628   1.285       .  A
O612       Zr620   2.413       .  S
O612        C627   1.279       .  A
O613      Zr2762   2.400       .  S
O613       Zr620   2.380       .  S
O614       Zr620   2.374       .  S
O614        H649   0.965       .  S
O615      Zr2749   2.424   1_455  S
O615       Zr635   2.398       .  S
O615        H652   0.966       .  S
O616       Zr619   2.390       .  S
O616      Zr2779   2.408       .  S
Zr617       O642   2.444       .  S
Zr617       O632   2.442       .  S
Zr617      O2767   2.405   1_455  S
Zr617       O624   2.406       .  S
Zr618       O637   2.437       .  S
Zr618       O630   2.437       .  S
Zr618       O631   2.446       .  S
Zr618      O2757   2.401   1_455  S
Zr618       O624   2.390       .  S
Zr619       O621   2.434       .  S
Zr619       O643   2.440       .  S
Zr619       O645   2.412       .  S
Zr619      O2770   2.393       .  S
Zr620       O646   2.434       .  S
Zr620       O647   2.435       .  S
Zr620       O622   2.426       .  S
Zr620       O623   2.385       .  S
Zr620      O2768   2.402       .  S
O621        H658   0.990       .  S
O622        H653   0.991       .  S
O622        H667   0.990       .  S
O623      Zr2761   2.400       .  S
O624      Zr2764   2.402   1_455  S
O624        H650   0.966       .  S
O625       Zr635   2.362       .  S
O626      Zr2763   2.390   1_455  S
O626       Zr635   2.367       .  S
O626        H651   0.965       .  S
C627       C1053   1.480       .  S
C628       C1046   1.479       .  S
C629       C1071   1.430       .  S
C629       O2754   1.278       .  A
O630        H666   0.990       .  S
O631        C633   1.287       .  A
O632        C633   1.285       .  A
C633       C1049   1.485       .  S
O634       Zr635   2.439       .  S
O634        H663   0.990       .  S
Zr635       O638   2.437       .  S
Zr635       O639   2.432       .  S
Zr635       O640   2.453       .  S
Zr635      O2760   2.412   1_455  S
O636        C641   1.282       .  A
O637        H654   0.990       .  S
O638        H655   0.990       .  S
O639        H659   0.990       .  S
O639        H668   0.989       .  S
O640        C641   1.290       .  A
C641       C1041   1.491       .  S
O642        H661   0.990       .  S
O642        H665   0.990       .  S
O643        H657   0.990       .  S
O644        C648   1.281       .  A
O645       C2792   1.280       .  A
O646        H656   0.990       .  S
O647       H2804   0.990       .  S
C648       C1070   1.419       .  S
C648       O2789   1.279   1_455  A
H660       O2791   0.990   1_455  S
Zr671       O672   2.440       .  S
Zr671       O673   2.464       .  S
Zr671       O674   2.435       .  S
Zr671       O677   2.439       .  S
Zr671       O679   2.384       .  S
Zr671       O680   2.372       .  S
Zr671      O2825   2.414   1_455  S
Zr671       O682   2.413       .  S
O672        H728   0.990       .  S
O672        H736   0.990       .  S
O673        C693   1.289       .  A
O674        C695   1.283       .  A
O675       Zr685   2.424       .  S
O675        C694   1.282       .  A
O676       Zr684   2.423       .  S
O676       C2839   1.281       .  A
O677        C694   1.286       .  A
O678       Zr686   2.412       .  S
O678        C693   1.280       .  A
O679      Zr2828   2.394   1_455  S
O679       Zr686   2.378       .  S
O680       Zr685   2.367       .  S
O680       Zr686   2.372       .  S
O680        H715   0.964       .  S
O681      Zr2815   2.421       .  S
O681       Zr684   2.397       .  S
O681       Zr701   2.404       .  S
O681        H718   0.966       .  S
O682       Zr685   2.384       .  S
O682      Zr2845   2.409   1_455  S
Zr683       O708   2.449       .  S
Zr683       O702   2.445       .  S
Zr683       O710   2.431       .  S
Zr683       O698   2.442       .  S
Zr683      O2833   2.401       .  S
Zr683       O690   2.407       .  S
Zr683       O691   2.371       .  S
Zr683       O692   2.389       .  S
Zr684       O703   2.437       .  S
Zr684       O696   2.436       .  S
Zr684       O697   2.437       .  S
Zr684      O2823   2.401       .  S
Zr684       O690   2.392       .  S
Zr684       O691   2.380       .  S
Zr685       O687   2.434       .  S
Zr685       O709   2.440       .  S
Zr685       O711   2.385       .  S
Zr685       O689   2.397       .  S
Zr685      O2836   2.387   1_455  S
Zr686       O712   2.435       .  S
Zr686       O713   2.436       .  S
Zr686       O688   2.429       .  S
Zr686       O689   2.382       .  S
Zr686      O2834   2.395   1_455  S
O687        H724   0.990       .  S
O688        H719   0.991       .  S
O688        H733   0.990       .  S
O689      Zr2827   2.395   1_455  S
O690      Zr2830   2.403       .  S
O690        H716   0.966       .  S
O691       Zr701   2.365       .  S
O692      Zr2829   2.395       .  S
O692       Zr701   2.376       .  S
O692        H717   0.966       .  S
C693       C1033   1.474       .  S
C694       C1026   1.475       .  S
C695       C1062   1.428       .  S
C695       O2820   1.280   1_455  A
O696        H732   0.990       .  S
O697        C699   1.285       .  A
O698        C699   1.286       .  A
C699       C1037   1.482       .  S
O700       Zr701   2.439       .  S
O700        H729   0.990       .  S
Zr701       O704   2.437       .  S
Zr701       O705   2.431       .  S
Zr701       O706   2.463       .  S
Zr701      O2826   2.413       .  S
O702        C707   1.286       .  A
O703        H720   0.990       .  S
O703        H735   0.990       .  S
O704        H721   0.990       .  S
O705        H725   0.989       .  S
O705        H734   0.990       .  S
O706        C707   1.291       .  A
C707       C1030   1.499       .  S
O708        H727   0.990       .  S
O708        H731   0.990       .  S
O709        H723   0.990       .  S
O709        H730   0.989       .  S
O710        C714   1.283       .  A
O711       C2858   1.274   1_455  A
O712        H722   0.990       .  S
O713       H2870   0.990   1_455  S
C714       C1064   1.420       .  S
C714       O2855   1.278       .  A
H726       O2857   0.990       .  S
Zr737       O738   2.441       .  S
Zr737       O743   2.440       .  S
Zr737      O1819   2.419       .  S
Zr737       O748   2.413       .  S
O738        H794   0.991       .  S
O738        H802   0.990       .  S
O739        C759   1.287       .  A
O740        C761   1.284       .  A
O741       Zr751   2.440       .  S
O741        C760   1.285       .  A
O742       Zr750   2.404       .  S
O742       C1833   1.277   1_545  A
O743        C760   1.286       .  A
O744       Zr752   2.447       .  S
O744        C759   1.287       .  A
O745      Zr1822   2.396       .  S
O745       Zr752   2.369       .  S
O746       Zr752   2.370       .  S
O746        H781   0.964       .  S
O747      Zr1809   2.414   1_545  S
O747       Zr767   2.393       .  S
O747        H784   0.967       .  S
O748       Zr751   2.386       .  S
O748      Zr1839   2.406       .  S
Zr749       O774   2.444       .  S
Zr749       O764   2.455       .  S
Zr749      O1827   2.408   1_545  S
Zr749       O756   2.407       .  S
Zr750       O769   2.440       .  S
Zr750       O762   2.436       .  S
Zr750       O763   2.426       .  S
Zr750      O1817   2.396   1_545  S
Zr750       O756   2.392       .  S
Zr751       O753   2.434       .  S
Zr751       O775   2.439       .  S
Zr751       O777   2.405       .  S
Zr751      O1830   2.396       .  S
Zr752       O778   2.436       .  S
Zr752       O779   2.435       .  S
Zr752       O754   2.430       .  S
Zr752       O755   2.399       .  S
Zr752      O1828   2.415       .  S
O753        H790   0.990       .  S
O754        H785   0.990       .  S
O754        H799   0.989       .  S
O755      Zr1821   2.414       .  S
O756      Zr1824   2.403   1_545  S
O756        H782   0.966       .  S
O757       Zr767   2.365       .  S
O758      Zr1823   2.392   1_545  S
O758       Zr767   2.373       .  S
O758        H783   0.967       .  S
C759       C1014   1.492       .  S
C760       C1021   1.482       .  S
C761       C1065   1.417       .  S
C761       O1814   1.275       .  A
O762        H798   0.990       .  S
O763        C765   1.283       .  A
O764        C765   1.288       .  A
C765       C1009   1.481       .  S
O766       Zr767   2.438       .  S
O766        H795   0.990       .  S
Zr767       O770   2.437       .  S
Zr767       O771   2.426       .  S
Zr767       O772   2.440       .  S
Zr767      O1820   2.410   1_545  S
O768        C773   1.285       .  A
O769        H786   0.990       .  S
O770        H787   0.990       .  S
O771        H791   0.990       .  S
O771        H800   0.990       .  S
O772        C773   1.287       .  A
C773       C1018   1.489       .  S
O774        H793   0.990       .  S
O774        H797   0.990       .  S
O775        H789   0.990       .  S
O776        C780   1.285       .  A
O777       C1852   1.278       .  A
O778        H788   0.990       .  S
O779       H1864   0.990       .  S
C780       C1068   1.419       .  S
C780       O1849   1.276   1_545  A
H792       O1851   0.990       .  S
Zr803       O804   2.439       .  S
Zr803       O805   2.468       .  S
Zr803       O806   2.441       .  S
Zr803       O809   2.449       .  S
Zr803       O811   2.386       .  S
Zr803       O812   2.374       .  S
Zr803      O1885   2.421   1_545  S
Zr803       O814   2.414       .  S
O804        H860   0.990       .  S
O804        H868   0.990       .  S
O805        C825   1.290       .  A
O806        C827   1.285       .  A
O807       Zr817   2.454       .  S
O807        C826   1.288       .  A
O808       Zr816   2.414       .  S
O808       C1899   1.278       .  A
O809        C826   1.288       .  A
O810       Zr818   2.441       .  S
O810        C825   1.286       .  A
O811      Zr1888   2.404   1_545  S
O811       Zr818   2.373       .  S
O812       Zr817   2.373       .  S
O812       Zr818   2.371       .  S
O812        H847   0.965       .  S
O813      Zr1875   2.412       .  S
O813       Zr816   2.399       .  S
O813       Zr833   2.394       .  S
O813        H850   0.965       .  S
O814       Zr817   2.385       .  S
O814      Zr1905   2.411   1_545  S
Zr815       O840   2.442       .  S
Zr815       O834   2.437       .  S
Zr815       O842   2.430       .  S
Zr815       O830   2.464       .  S
Zr815      O1893   2.409       .  S
Zr815       O822   2.407       .  S
Zr815       O823   2.371       .  S
Zr815       O824   2.392       .  S
Zr816       O835   2.439       .  S
Zr816       O828   2.435       .  S
Zr816       O829   2.431       .  S
Zr816      O1883   2.398       .  S
Zr816       O822   2.390       .  S
Zr816       O823   2.381       .  S
Zr817       O819   2.433       .  S
Zr817       O841   2.437       .  S
Zr817       O843   2.414       .  S
Zr817       O821   2.400       .  S
Zr817      O1896   2.395   1_545  S
Zr818       O844   2.435       .  S
Zr818       O845   2.434       .  S
Zr818       O820   2.432       .  S
Zr818       O821   2.398       .  S
Zr818      O1894   2.410   1_545  S
O819        H856   0.990       .  S
O820        H851   0.990       .  S
O820        H865   0.989   1_545  S
O821      Zr1887   2.411   1_545  S
O822      Zr1890   2.404       .  S
O822        H848   0.966       .  S
O823       Zr833   2.363       .  S
O824      Zr1889   2.396       .  S
O824       Zr833   2.368       .  S
O824        H849   0.966       .  S
C825        C993   1.496       .  S
C826       C1001   1.494       .  S
C827       C1059   1.426       .  S
C827       O1880   1.279   1_545  A
O828        H864   0.990       .  S
O829        C831   1.284       .  A
O830        C831   1.289       .  A
C831        C998   1.487       .  S
O832       Zr833   2.438       .  S
O832        H861   0.991       .  S
Zr833       O836   2.437       .  S
Zr833       O837   2.429       .  S
Zr833       O838   2.441       .  S
Zr833      O1886   2.406       .  S
O834        C839   1.283       .  A
O835        H852   0.990       .  S
O835        H867   0.990       .  S
O836        H853   0.990       .  S
O837        H857   0.990       .  S
O837        H866   0.990       .  S
O838        C839   1.287       .  A
C839       C1005   1.489       .  S
O840        H859   0.990       .  S
O840        H863   0.990       .  S
O841        H855   0.990       .  S
O841        H862   0.990       .  S
O842        C846   1.284       .  A
O843       C1918   1.280   1_545  A
O844        H854   0.990       .  S
O845       H1930   0.990   1_545  S
C846       C1058   1.429       .  S
C846       O1915   1.282       .  A
H858       O1917   0.990       .  S
O869       Zr881   2.463       .  S
O869        C871   1.294       .  A
O870       Zr907   2.430       .  S
O870        C871   1.287       .  A
C871       C1054   1.484       .  S
O872       Zr884   2.460       .  S
O872        C874   1.290       .  A
O873       Zr908   2.445       .  S
O873        C874   1.289       .  A
C874        C997   1.495       .  S
O875       Zr884   2.445       .  S
O875        C877   1.287       .  A
O876       Zr907   2.470       .  S
O876        C877   1.294       .  A
C877       C1029   1.491       .  S
O878       Zr881   2.459       .  S
O878        C880   1.292       .  A
O879       Zr908   2.432       .  S
O879        C880   1.288       .  A
C880       C1022   1.484       .  S
Zr881       O882   2.434       .  S
Zr881       O883   2.431       .  S
Zr881       O887   2.366       .  S
Zr881       O888   2.375       .  S
Zr881       O911   2.376       .  S
Zr881       O913   2.380       .  S
O882        H925   0.990       .  S
O883        H924   0.990       .  S
O883        H928   0.990       .  S
Zr884       O885   2.440       .  S
Zr884       O886   2.431       .  S
Zr884       O888   2.369       .  S
Zr884       O887   2.368       .  S
Zr884       O912   2.384       .  S
Zr884       O914   2.373       .  S
O885        H926   0.991       .  S
O885        H929   0.990       .  S
O886        H919   0.990       .  S
O887       Zr907   2.391       .  S
O888       Zr908   2.395       .  S
O888        H915   0.965       .  S
O889       Zr901   2.447       .  S
O889        C891   1.288       .  A
O890       Zr908   2.449       .  S
O890        C891   1.290       .  A
C891       C1050   1.489       .  S
O892       Zr904   2.445       .  S
O892        C894   1.288       .  A
O893       Zr907   2.462       .  S
O893        C894   1.292       .  A
C894        C994   1.489       .  S
O895       Zr904   2.444       .  S
O895        C897   1.289       .  A
O896       Zr908   2.432       .  S
O896        C897   1.286       .  A
C897       C1025   1.477       .  S
O898       Zr901   2.428       .  S
O898        C900   1.284       .  A
O899       Zr907   2.457       .  S
O899        C900   1.291       .  A
C900       C1017   1.477       .  S
Zr901       O902   2.438       .  S
Zr901       O903   2.432       .  S
Zr901       O909   2.368       .  S
Zr901       O910   2.369       .  S
Zr901       O913   2.368       .  S
Zr901       O911   2.366       .  S
O902        H922   0.990       .  S
O902        H927   0.990       .  S
O903        H923   0.990       .  S
Zr904       O905   2.434       .  S
Zr904       O906   2.429       .  S
Zr904       O910   2.360       .  S
Zr904       O909   2.371       .  S
Zr904       O914   2.376       .  S
Zr904       O912   2.382       .  S
O905        H921   0.990       .  S
O906        H920   0.990       .  S
O906        H930   0.990       .  S
Zr907       O910   2.384       .  S
Zr907       O912   2.404       .  S
Zr907       O913   2.406       .  S
Zr908       O909   2.392       .  S
Zr908       O911   2.393       .  S
Zr908       O914   2.394       .  S
O909        H917   0.965       .  S
O912        H916   0.967       .  S
O913        H918   0.967       .  S
O931       Zr943   2.443       .  S
O931        C933   1.288       .  A
O932       Zr969   2.439       .  S
O932        C933   1.288       .  A
C933       C1038   1.484       .  S
O934       Zr946   2.441       .  S
O934        C936   1.286       .  A
O935       Zr970   2.469       .  S
O935        C936   1.294       .  A
C936       C1013   1.488       .  S
O937       Zr946   2.433       .  S
O937        C939   1.287       .  A
O938       Zr969   2.447       .  S
O938        C939   1.290       .  A
C939       C1045   1.485       .  S
O940       Zr943   2.432       .  S
O940        C942   1.286       .  A
O941       Zr970   2.466       .  S
O941        C942   1.293       .  A
C942       C1006   1.477       .  S
Zr943       O944   2.433       .  S
Zr943       O945   2.431       .  S
Zr943       O949   2.361       .  S
Zr943       O950   2.370       .  S
Zr943       O973   2.373       .  S
Zr943       O975   2.370       .  S
O944        H987   0.990       .  S
O945        H986   0.990       .  S
O945        H990   0.990       .  S
Zr946       O947   2.438       .  S
Zr946       O948   2.432       .  S
Zr946       O950   2.358       .  S
Zr946       O949   2.369       .  S
Zr946       O974   2.368       .  S
Zr946       O976   2.377       .  S
O947        H988   0.991       .  S
O947        H991   0.990       .  S
O948        H981   0.990       .  S
O949       Zr969   2.379       .  S
O950       Zr970   2.395       .  S
O950        H977   0.964       .  S
O951       Zr963   2.454       .  S
O951        C953   1.292       .  A
O952       Zr970   2.436       .  S
O952        C953   1.288       .  A
C953       C1034   1.484       .  S
O954       Zr966   2.448       .  S
O954        C956   1.290       .  A
O955       Zr969   2.437       .  S
O955        C956   1.288       .  A
C956       C1010   1.487       .  S
O957       Zr966   2.428       .  S
O957        C959   1.285       .  A
O958       Zr970   2.481       .  S
O958        C959   1.297       .  A
C959       C1042   1.483       .  S
O960       Zr963   2.462       .  S
O960        C962   1.292       .  A
O961       Zr969   2.448       .  S
O961        C962   1.291       .  A
C962       C1002   1.494       .  S
Zr963       O964   2.437       .  S
Zr963       O965   2.428       .  S
Zr963       O971   2.361       .  S
Zr963       O972   2.369       .  S
Zr963       O975   2.373       .  S
Zr963       O973   2.381       .  S
O964        H984   0.990       .  S
O964        H989   0.990       .  S
O965        H985   0.990       .  S
Zr966       O967   2.434       .  S
Zr966       O968   2.433       .  S
Zr966       O972   2.363       .  S
Zr966       O971   2.374       .  S
Zr966       O976   2.384       .  S
Zr966       O974   2.369       .  S
O967        H983   0.990       .  S
O968        H982   0.990       .  S
O968        H992   0.990       .  S
Zr969       O972   2.382       .  S
Zr969       O974   2.394       .  S
Zr969       O975   2.394       .  S
Zr970       O971   2.403       .  S
Zr970       O973   2.407       .  S
Zr970       O976   2.402       .  S
O971        H979   0.965       .  S
O974        H978   0.968       .  S
O975        H980   0.967       .  S
C993        C994   1.351       .  D
C993        H995   1.086       .  S
C994        H996   1.088       .  S
C997        C998   1.350       .  D
C997        H999   1.086       .  S
C998       H1000   1.087       .  S
C1001      C1002   1.352       .  D
C1001      H1003   1.087       .  S
C1002      H1004   1.086       .  S
C1005      C1006   1.344       .  D
C1005      H1007   1.086       .  S
C1006      H1008   1.087       .  S
C1009      C1010   1.348       .  D
C1009      H1011   1.087       .  S
C1010      H1012   1.086       .  S
C1013      C1014   1.346       .  D
C1013      H1015   1.088       .  S
C1014      H1016   1.086       .  S
C1017      C1018   1.345       .  D
C1017      H1019   1.087       .  S
C1018      H1020   1.086       .  S
C1021      C1022   1.347       .  D
C1021      H1023   1.087       .  S
C1022      H1024   1.087       .  S
C1025      C1026   1.344       .  D
C1025      H1027   1.086       .  S
C1026      H1028   1.088       .  S
C1029      C1030   1.348       .  D
C1029      H1031   1.087       .  S
C1030      H1032   1.086       .  S
C1033      C1034   1.343       .  D
C1033      H1035   1.088       .  S
C1034      H1036   1.086       .  S
C1037      C1038   1.349       .  D
C1037      H1039   1.087       .  S
C1038      H1040   1.086       .  S
C1041      C1042   1.343       .  D
C1041      H1043   1.086       .  S
C1042      H1044   1.088       .  S
C1045      C1046   1.349       .  D
C1045      H1047   1.086       .  S
C1046      H1048   1.087       .  S
C1049      C1050   1.352       .  D
C1049      H1051   1.087       .  S
C1050      H1052   1.086       .  S
C1053      C1054   1.341       .  D
C1053      H1055   1.088       .  S
C1054      H1056   1.086       .  S
C1057      C1666   1.445       .  S
C1057      C1058   1.203       .  T
C1059      C1060   1.201   1_545  T
C1061      C2737   1.445       .  S
C1061      C1062   1.203       .  T
C1063      C1064   1.198       .  T
C1065      C1066   1.196       .  T
C1066      C1632   1.434       .  S
C1067      C1068   1.197       .  T
C1069      C2167   1.436       .  S
C1069      C1070   1.197       .  T
C1071      C1072   1.204       .  T
N1073      C1078   1.348       .  A
N1073      C1613   1.347       .  A
N1073      H1105   1.039       .  S
N1074      C1081   1.350       .  A
N1074      C1082   1.349       .  A
N1075      C1080   1.351       .  A
N1075      C1615   1.348       .  A
N1075      H1106   1.039   1_556  S
N1076      C1083   1.348   1_556  A
N1076      C1084   1.349       .  A
C1077      N1609   1.350       .  A
C1077      C1085   1.387       .  A
C1077      C1093   1.405       .  A
C1078      C1094   1.402       .  A
C1078      C1086   1.388       .  A
C1079      N1611   1.351       .  A
C1079      C1087   1.388       .  A
C1080      C3239   1.406   1_455  A
C1080      C1088   1.386       .  A
C1081      C3237   1.408   1_455  A
C1081      C1089   1.385       .  A
C1082      C1096   1.411       .  A
C1082      C1090   1.388       .  A
C1083      C1091   1.386       .  A
C1084      C1092   1.386   1_556  A
C1084      C1095   1.408       .  A
C1085      C1622   1.372       .  A
C1085      H1097   1.083       .  S
C1086      C1621   1.369       .  A
C1086      H1098   1.082       .  S
C1087      C1624   1.371       .  A
C1087      H1099   1.082       .  S
C1088      C1623   1.373       .  A
C1088      H1100   1.082       .  S
C1089      C1090   1.376       .  A
C1089      H1101   1.083       .  S
C1090      H1102   1.082       .  S
C1091      C1092   1.376       .  A
C1091      H1103   1.082       .  S
C1092      H1104   1.082       .  S
C1093      C3225   1.406       .  A
C1093      C2144   1.441       .  S
C1094      C1603   1.433       .  S
C1095      C3224   1.404       .  A
C1095      C4285   1.441       .  S
N1107      C1112   1.351       .  A
N1107      C1111   1.351       .  A
N1107      H1139   1.038       .  S
N1108      C1115   1.348       .  A
N1108      C1116   1.349       .  A
N1109      C1114   1.353       .  A
N1109      C1113   1.353       .  A
N1109      H1140   1.038       .  S
N1110      C1117   1.351       .  A
N1110      C1118   1.351       .  A
C1111      C1119   1.387       .  A
C1111      C1127   1.408       .  A
C1112      C1128   1.410       .  A
C1112      C1120   1.389       .  A
C1113      C1121   1.388       .  A
C1114      C3273   1.413       .  A
C1114      C1122   1.387       .  A
C1115      C3271   1.406   1_455  A
C1115      C1123   1.387       .  A
C1116      C1130   1.408       .  A
C1116      C1124   1.387       .  A
C1117      C1125   1.385       .  A
C1118      C1126   1.388       .  A
C1118      C1129   1.413       .  A
C1119      C1120   1.372       .  A
C1119      H1131   1.082       .  S
C1120      H1132   1.082       .  S
C1121      C1122   1.375       .  A
C1121      H1133   1.082       .  S
C1122      H1134   1.082       .  S
C1123      C1124   1.372       .  A
C1123      H1135   1.083       .  S
C1124      H1136   1.082       .  S
C1125      C1126   1.374       .  A
C1125      H1137   1.082       .  S
C1126      H1138   1.082       .  S
C1127      C3259   1.406       .  A
C1127      C1599   1.439       .  S
C1128      C1596   1.446       .  S
C1129      C3258   1.410       .  A
C1129      C3741   1.444       .  S
Zr1141     O1142   2.442       .  S
Zr1141     O1679   2.464       .  S
Zr1141     O1680   2.438       .  S
Zr1141     O1147   2.439       .  S
Zr1141     O1685   2.386       .  S
Zr1141     O1686   2.377       .  S
Zr1141     O3295   2.414       .  S
Zr1141     O1152   2.410       .  S
O1142      H1198   0.991       .  S
O1142      H1206   0.990       .  S
O1143     Zr1677   2.456   1_554  S
O1143      C1163   1.287       .  A
O1144     Zr1677   2.440   1_554  S
O1144      C1165   1.285       .  A
O1145     Zr1155   2.446       .  S
O1145      C1164   1.287       .  A
O1146     Zr1154   2.406       .  S
O1146      C3309   1.277   1_455  A
O1147      C1164   1.286       .  A
O1148     Zr1156   2.429       .  S
O1148      C1163   1.284       .  A
O1149     Zr1677   2.388   1_554  S
O1149     Zr3298   2.399       .  S
O1149     Zr1156   2.368       .  S
O1150     Zr1677   2.378   1_554  S
O1150     Zr1691   2.376   1_554  S
O1150     Zr1156   2.375       .  S
O1150      H1185   0.966       .  S
O1151     Zr3285   2.424   1_455  S
O1151     Zr1690   2.402       .  S
O1151     Zr1171   2.383       .  S
O1151      H1188   0.965       .  S
O1152     Zr1155   2.390       .  S
O1152     Zr3315   2.402       .  S
Zr1153     O1178   2.442       .  S
Zr1153     O1708   2.461   1_554  S
Zr1153     O1716   2.434   1_554  S
Zr1153     O1168   2.456       .  S
Zr1153     O3303   2.412   1_455  S
Zr1153     O1160   2.411       .  S
Zr1153     O1697   2.368   1_554  S
Zr1153     O1698   2.394   1_554  S
Zr1154     O1173   2.439       .  S
Zr1154     O1166   2.434       .  S
Zr1154     O1167   2.429       .  S
Zr1154     O3293   2.399   1_455  S
Zr1154     O1687   2.401   1_554  S
Zr1154     O1160   2.392       .  S
Zr1154     O1697   2.381   1_554  S
Zr1155     O1157   2.434       .  S
Zr1155     O1179   2.440       .  S
Zr1155     O1181   2.413       .  S
Zr1155     O1686   2.374       .  S
Zr1155     O1695   2.394       .  S
Zr1155     O3306   2.401       .  S
Zr1156     O1182   2.434       .  S
Zr1156     O1183   2.435       .  S
Zr1156     O1158   2.432       .  S
Zr1156     O1159   2.392       .  S
Zr1156     O3304   2.408       .  S
O1157      H1194   0.990       .  S
O1158      H1189   0.990       .  S
O1158      H1203   0.989       .  S
O1159     Zr3297   2.410       .  S
O1159     Zr1691   2.398   1_554  S
O1160     Zr3300   2.412   1_455  S
O1160      H1186   0.965       .  S
O1161     Zr1689   2.377       .  S
O1161     Zr1690   2.382       .  S
O1161     Zr1171   2.365       .  S
O1162     Zr1689   2.395       .  S
O1162     Zr3299   2.393   1_455  S
O1162     Zr1171   2.386       .  S
O1162      H1187   0.965       .  S
C1163      C1589   1.489       .  S
C1164      C1582   1.484       .  S
C1165      C1607   1.416       .  S
C1165      O3290   1.275       .  A
O1166      H1202   0.990       .  S
O1167      C1169   1.283       .  A
O1168      C1169   1.287       .  A
C1169      C1585   1.485       .  S
O1170     Zr1171   2.436       .  S
O1170      H1199   0.990   1_455  S
Zr1171     O1174   2.438       .  S
Zr1171     O1175   2.432       .  S
Zr1171     O1176   2.422       .  S
Zr1171     O3296   2.411   1_455  S
O1172     Zr1689   2.449       .  S
O1172      C1177   1.285       .  A
O1173      H1190   0.990       .  S
O1173      H1741   0.990   1_554  S
O1174      H1191   0.990       .  S
O1175      H1195   0.991       .  S
O1175      H1204   0.989       .  S
O1176      C1177   1.281       .  A
C1177      C1577   1.478       .  S
O1178      H1197   0.990       .  S
O1178      H1201   0.991       .  S
O1179      H1193   0.990       .  S
O1179      H1736   0.990       .  S
O1180     Zr1689   2.450       .  S
O1180      C1184   1.286       .  A
O1181      C3328   1.279       .  A
O1182      H1192   0.990       .  S
O1183      H3340   0.990       .  S
C1184      C1606   1.430       .  S
C1184      O3325   1.279   1_455  A
H1196      O3327   0.990       .  S
H1200      O1715   0.990       .  S
H1205      O1709   0.990       .  S
Zr1207     O1208   2.439       .  S
Zr1207     O1209   2.458       .  S
Zr1207     O1210   2.434       .  S
Zr1207     O1213   2.448       .  S
Zr1207     O1215   2.385       .  S
Zr1207     O1216   2.373       .  S
Zr1207     O3361   2.421   1_455  S
Zr1207     O1218   2.406       .  S
O1208      H1264   0.990       .  S
O1208      H1272   0.990       .  S
O1209      C1229   1.289       .  A
O1210      C1231   1.283       .  A
O1211     Zr1221   2.447       .  S
O1211      C1230   1.287       .  A
O1212     Zr1220   2.426       .  S
O1212      C3375   1.281       .  A
O1213      C1230   1.288       .  A
O1214     Zr1222   2.428       .  S
O1214      C1229   1.282       .  A
O1215     Zr3364   2.399   1_455  S
O1215     Zr1222   2.371       .  S
O1216     Zr1221   2.380       .  S
O1216     Zr1222   2.376       .  S
O1216      H1251   0.964       .  S
O1217     Zr3351   2.416       .  S
O1217     Zr1220   2.395       .  S
O1217     Zr1237   2.395       .  S
O1217      H1254   0.966       .  S
O1218     Zr1221   2.384       .  S
O1218     Zr3381   2.407   1_455  S
Zr1219     O1244   2.447       .  S
Zr1219     O1238   2.433       .  S
Zr1219     O1246   2.422       .  S
Zr1219     O1234   2.447       .  S
Zr1219     O3369   2.396       .  S
Zr1219     O1226   2.401       .  S
Zr1219     O1227   2.374       .  S
Zr1219     O1228   2.388       .  S
Zr1220     O1239   2.438       .  S
Zr1220     O1232   2.436       .  S
Zr1220     O1233   2.432       .  S
Zr1220     O3359   2.398       .  S
Zr1220     O1226   2.394       .  S
Zr1220     O1227   2.386       .  S
Zr1221     O1223   2.434       .  S
Zr1221     O1245   2.438       .  S
Zr1221     O1247   2.416       .  S
Zr1221     O1225   2.396       .  S
Zr1221     O3372   2.397   1_455  S
Zr1222     O1248   2.436       .  S
Zr1222     O1249   2.434       .  S
Zr1222     O1224   2.431       .  S
Zr1222     O1225   2.393       .  S
Zr1222     O3370   2.399   1_455  S
O1223      H1260   0.990       .  S
O1224      H1255   0.990       .  S
O1224      H1269   0.989   1_455  S
O1225     Zr3363   2.405   1_455  S
O1226     Zr3366   2.396       .  S
O1226      H1252   0.966       .  S
O1227     Zr1237   2.366       .  S
O1228     Zr3365   2.395       .  S
O1228     Zr1237   2.373       .  S
O1228      H1253   0.966       .  S
C1229      C1569   1.484       .  S
C1230      C1562   1.490       .  S
C1231      C1598   1.429       .  S
C1231      O3356   1.281   1_455  A
O1232      H1268   0.990       .  S
O1233      C1235   1.285       .  A
O1234      C1235   1.287       .  A
C1235      C1573   1.479       .  S
O1236     Zr1237   2.440       .  S
O1236      H1265   0.991       .  S
Zr1237     O1240   2.437       .  S
Zr1237     O1241   2.428       .  S
Zr1237     O1242   2.456       .  S
Zr1237     O3362   2.414       .  S
O1238      C1243   1.283       .  A
O1239      H1256   0.990       .  S
O1239      H1271   0.990       .  S
O1240      H1257   0.990       .  S
O1241      H1261   0.989       .  S
O1241      H1270   0.990       .  S
O1242      C1243   1.290       .  A
C1243      C1566   1.491       .  S
O1244      H1263   0.990       .  S
O1244      H1267   0.990       .  S
O1245      H1259   0.990       .  S
O1245      H1266   0.990       .  S
O1246      C1250   1.281       .  A
O1247      C3394   1.280   1_455  A
O1248      H1258   0.990       .  S
O1249      H3406   0.990       .  S
C1250      C1600   1.421       .  S
C1250      O3391   1.280       .  A
H1262      O3393   0.990       .  S
Zr1273     O1274   2.438       .  S
Zr1273     O1811   2.462   1_554  S
Zr1273     O1812   2.443   1_554  S
Zr1273     O1279   2.451       .  S
Zr1273     O1817   2.383   1_554  S
Zr1273     O1818   2.379   1_554  S
Zr1273     O1284   2.412       .  S
O1274      H1330   0.990       .  S
O1274      H1338   0.990       .  S
O1275     Zr1809   2.444       .  S
O1275      C1295   1.285       .  A
O1276     Zr1809   2.437       .  S
O1276      C1297   1.284       .  A
O1277     Zr1287   2.435       .  S
O1277      C1296   1.284       .  A
O1278     Zr1286   2.415       .  S
O1279      C1296   1.288       .  A
O1280     Zr1288   2.439       .  S
O1280      C1295   1.287       .  A
O1281     Zr1809   2.384       .  S
O1281     Zr1288   2.372       .  S
O1282     Zr1809   2.374       .  S
O1282     Zr1823   2.378       .  S
O1282     Zr1288   2.366       .  S
O1282      H1317   0.965       .  S
O1283     Zr1822   2.402   1_554  S
O1283     Zr1303   2.398       .  S
O1283      H1320   0.966       .  S
O1284     Zr1287   2.382       .  S
Zr1285     O1310   2.439       .  S
Zr1285     O1840   2.457       .  S
Zr1285     O1848   2.428       .  S
Zr1285     O1300   2.454       .  S
Zr1285     O1292   2.414       .  S
Zr1285     O1829   2.375       .  S
Zr1285     O1830   2.391       .  S
Zr1286     O1305   2.439       .  S
Zr1286     O1298   2.434       .  S
Zr1286     O1299   2.441       .  S
Zr1286     O1819   2.403       .  S
Zr1286     O1292   2.395       .  S
Zr1286     O1829   2.381       .  S
Zr1287     O1289   2.436       .  S
Zr1287     O1311   2.438       .  S
Zr1287     O1313   2.406       .  S
Zr1287     O1818   2.378   1_554  S
Zr1287     O1827   2.398   1_554  S
Zr1288     O1314   2.438       .  S
Zr1288     O1315   2.435       .  S
Zr1288     O1290   2.427       .  S
Zr1288     O1291   2.395       .  S
O1289      H1326   0.990       .  S
O1290      H1321   0.990       .  S
O1290      H1335   0.990       .  S
O1291     Zr1823   2.397       .  S
O1292      H1318   0.966       .  S
O1293     Zr1821   2.365   1_554  S
O1293     Zr1822   2.372   1_554  S
O1293     Zr1303   2.364       .  S
O1294     Zr1821   2.390   1_554  S
O1294     Zr1303   2.373       .  S
O1294      H1319   0.966       .  S
C1295      C1550   1.490       .  S
C1296      C1557   1.483       .  S
C1297      C1601   1.424       .  S
O1298      H1334   0.990       .  S
O1299      C1301   1.285       .  A
O1300      C1301   1.287       .  A
C1301      C1545   1.490       .  S
O1302     Zr1303   2.438       .  S
O1302      H1331   0.990       .  S
Zr1303     O1306   2.438       .  S
Zr1303     O1307   2.432       .  S
Zr1303     O1308   2.437       .  S
O1304     Zr1821   2.460   1_554  S
O1304      C1309   1.289       .  A
O1305      H1322   0.990       .  S
O1305      H1873   0.990       .  S
O1306      H1323   0.990       .  S
O1307      H1327   0.990       .  S
O1307      H1336   0.989       .  S
O1308      C1309   1.286       .  A
C1309      C1554   1.498       .  S
O1310      H1329   0.990       .  S
O1310      H1333   0.990       .  S
O1311      H1325   0.990       .  S
O1311      H1868   0.990       .  S
O1312     Zr1821   2.423   1_554  S
O1312      C1316   1.282       .  A
O1314      H1324   0.990       .  S
C1316      C1604   1.416       .  S
H1332      O1847   0.990       .  S
H1337      O1841   0.990       .  S
Zr1339     O1340   2.441       .  S
Zr1339     O1341   2.476       .  S
Zr1339     O1342   2.453       .  S
Zr1339     O1345   2.457       .  S
Zr1339     O1347   2.395       .  S
Zr1339     O1348   2.378       .  S
Zr1339     O1350   2.418       .  S
O1340      H1396   0.990       .  S
O1340      H1404   0.990       .  S
O1341      C1361   1.291       .  A
O1342      C1363   1.286       .  A
O1343     Zr1353   2.440       .  S
O1343      C1362   1.285       .  A
O1344     Zr1352   2.410       .  S
O1345      C1362   1.289       .  A
O1346     Zr1354   2.412       .  S
O1346      C1361   1.280       .  A
O1347     Zr1354   2.384       .  S
O1348     Zr1353   2.372       .  S
O1348     Zr1354   2.374       .  S
O1348      H1383   0.964       .  S
O1349     Zr1352   2.405       .  S
O1349     Zr1369   2.391       .  S
O1349      H1386   0.965       .  S
O1350     Zr1353   2.390       .  S
Zr1351     O1376   2.443       .  S
Zr1351     O1370   2.441       .  S
Zr1351     O1378   2.427       .  S
Zr1351     O1366   2.465       .  S
Zr1351     O1358   2.405       .  S
Zr1351     O1359   2.371       .  S
Zr1351     O1360   2.397       .  S
Zr1352     O1371   2.441       .  S
Zr1352     O1364   2.435       .  S
Zr1352     O1365   2.434       .  S
Zr1352     O1358   2.391       .  S
Zr1352     O1359   2.377       .  S
Zr1353     O1355   2.433       .  S
Zr1353     O1377   2.440       .  S
Zr1353     O1379   2.413       .  S
Zr1353     O1357   2.394       .  S
Zr1354     O1380   2.435       .  S
Zr1354     O1381   2.435       .  S
Zr1354     O1356   2.426       .  S
Zr1354     O1357   2.387       .  S
O1355      H1392   0.990       .  S
O1356      H1387   0.990       .  S
O1356      H1401   0.990       .  S
O1358      H1384   0.966       .  S
O1359     Zr1369   2.364       .  S
O1360     Zr1369   2.372       .  S
O1360      H1385   0.965       .  S
C1361      C1529   1.481       .  S
C1362      C1537   1.489       .  S
C1363      C1595   1.430       .  S
O1364      H1400   0.990       .  S
O1365      C1367   1.284       .  A
O1366      C1367   1.289       .  A
C1367      C1534   1.490       .  S
O1368     Zr1369   2.439       .  S
O1368      H1397   0.991       .  S
Zr1369     O1372   2.438       .  S
Zr1369     O1373   2.430       .  S
Zr1369     O1374   2.436       .  S
O1370      C1375   1.284       .  A
O1371      H1388   0.990       .  S
O1371      H1403   0.990       .  S
O1372      H1389   0.990       .  S
O1373      H1393   0.989       .  S
O1373      H1402   0.989       .  S
O1374      C1375   1.286       .  A
C1375      C1541   1.488       .  S
O1376      H1395   0.990       .  S
O1376      H1399   0.990       .  S
O1377      H1391   0.990       .  S
O1377      H1398   0.990       .  S
O1378      C1382   1.283   1_565  A
O1380      H1390   0.990       .  S
C1382      C1594   1.432       .  S
O1405     Zr1417   2.451       .  S
O1405      C1407   1.289       .  A
O1406     Zr1443   2.442       .  S
O1406      C1407   1.289       .  A
C1407      C1590   1.481       .  S
O1408     Zr1420   2.462       .  S
O1408      C1410   1.291       .  A
O1409     Zr1444   2.449       .  S
O1409      C1410   1.290       .  A
C1410      C1533   1.496       .  S
O1411     Zr1420   2.434       .  S
O1411      C1413   1.285       .  A
O1412     Zr1443   2.463       .  S
O1412      C1413   1.293       .  A
C1413      C1565   1.484       .  S
O1414     Zr1417   2.452       .  S
O1414      C1416   1.291       .  A
O1415     Zr1444   2.446       .  S
O1415      C1416   1.290       .  A
C1416      C1558   1.488       .  S
Zr1417     O1418   2.435       .  S
Zr1417     O1419   2.433       .  S
Zr1417     O1423   2.363       .  S
Zr1417     O1424   2.379       .  S
Zr1417     O1447   2.369       .  S
Zr1417     O1449   2.378       .  S
O1418      H1461   0.990       .  S
O1419      H1460   0.990       .  S
O1419      H1464   0.990       .  S
Zr1420     O1421   2.439       .  S
Zr1420     O1422   2.431       .  S
Zr1420     O1424   2.364       .  S
Zr1420     O1423   2.370       .  S
Zr1420     O1448   2.380       .  S
Zr1420     O1450   2.370       .  S
O1421      H1462   0.990       .  S
O1421      H1465   0.990       .  S
O1422      H1455   0.990       .  S
O1423     Zr1443   2.390       .  S
O1424     Zr1444   2.396       .  S
O1424      H1451   0.965       .  S
O1425     Zr1437   2.456       .  S
O1425      C1427   1.290       .  A
O1426     Zr1444   2.439       .  S
O1426      C1427   1.288       .  A
C1427      C1586   1.489       .  S
O1428     Zr1440   2.456       .  S
O1428      C1430   1.292       .  A
O1429     Zr1443   2.438       .  S
O1429      C1430   1.288       .  A
C1430      C1530   1.489       .  S
O1431     Zr1440   2.460       .  S
O1431      C1433   1.292       .  A
O1432     Zr1444   2.448       .  S
O1432      C1433   1.291       .  A
C1433      C1561   1.491       .  S
O1434     Zr1437   2.441       .  S
O1434      C1436   1.287       .  A
O1435     Zr1443   2.467       .  S
O1435      C1436   1.293       .  A
C1436      C1553   1.486       .  S
Zr1437     O1438   2.439       .  S
Zr1437     O1439   2.427       .  S
Zr1437     O1445   2.366       .  S
Zr1437     O1446   2.368       .  S
Zr1437     O1449   2.381       .  S
Zr1437     O1447   2.372       .  S
O1438      H1458   0.990       .  S
O1438      H1463   0.990       .  S
O1439      H1459   0.990       .  S
Zr1440     O1441   2.433       .  S
Zr1440     O1442   2.428       .  S
Zr1440     O1446   2.363       .  S
Zr1440     O1445   2.376       .  S
Zr1440     O1450   2.380       .  S
Zr1440     O1448   2.380       .  S
O1441      H1457   0.990       .  S
O1442      H1456   0.990       .  S
O1442      H1466   0.990       .  S
Zr1443     O1446   2.389       .  S
Zr1443     O1448   2.402       .  S
Zr1443     O1449   2.406       .  S
Zr1444     O1445   2.397       .  S
Zr1444     O1447   2.395       .  S
Zr1444     O1450   2.392       .  S
O1445      H1453   0.965       .  S
O1448      H1452   0.966       .  S
O1449      H1454   0.967       .  S
O1467     Zr1479   2.441       .  S
O1467      C1469   1.289       .  A
O1468     Zr1505   2.437       .  S
O1468      C1469   1.288       .  A
C1469      C1574   1.484       .  S
O1470     Zr1482   2.433       .  S
O1470      C1472   1.285       .  A
O1471     Zr1506   2.465       .  S
O1471      C1472   1.293       .  A
C1472      C1549   1.480       .  S
O1473     Zr1482   2.434       .  S
O1473      C1475   1.287       .  A
O1474     Zr1505   2.454       .  S
O1474      C1475   1.291       .  A
C1475      C1581   1.489       .  S
O1476     Zr1479   2.431       .  S
O1476      C1478   1.285       .  A
O1477     Zr1506   2.465       .  S
O1477      C1478   1.293       .  A
C1478      C1542   1.478       .  S
Zr1479     O1480   2.433       .  S
Zr1479     O1481   2.431       .  S
Zr1479     O1485   2.365       .  S
Zr1479     O1486   2.368       .  S
Zr1479     O1509   2.373       .  S
Zr1479     O1511   2.369       .  S
O1480      H1523   0.990       .  S
O1481      H1522   0.990       .  S
O1481      H1526   0.991       .  S
Zr1482     O1483   2.437       .  S
Zr1482     O1484   2.430       .  S
Zr1482     O1486   2.361       .  S
Zr1482     O1485   2.366       .  S
Zr1482     O1510   2.370       .  S
Zr1482     O1512   2.374       .  S
O1483      H1524   0.990       .  S
O1483      H1527   0.990       .  S
O1484      H1517   0.990       .  S
O1485     Zr1505   2.379       .  S
O1486     Zr1506   2.392       .  S
O1486      H1513   0.964       .  S
O1487     Zr1499   2.447       .  S
O1487      C1489   1.288       .  A
O1488     Zr1506   2.453       .  S
O1488      C1489   1.291       .  A
C1489      C1570   1.480       .  S
O1490     Zr1502   2.464       .  S
O1490      C1492   1.293       .  A
O1491     Zr1505   2.437       .  S
O1491      C1492   1.289       .  A
C1492      C1546   1.492       .  S
O1493     Zr1502   2.444       .  S
O1493      C1495   1.290       .  A
O1494     Zr1506   2.445       .  S
O1494      C1495   1.290       .  A
C1495      C1578   1.484       .  S
O1496     Zr1499   2.453       .  S
O1496      C1498   1.291       .  A
O1497     Zr1505   2.448       .  S
O1497      C1498   1.291       .  A
C1498      C1538   1.491       .  S
Zr1499     O1500   2.439       .  S
Zr1499     O1501   2.426       .  S
Zr1499     O1507   2.368       .  S
Zr1499     O1508   2.368       .  S
Zr1499     O1511   2.374       .  S
Zr1499     O1509   2.382       .  S
O1500      H1520   0.990       .  S
O1500      H1525   0.990       .  S
O1501      H1521   0.990       .  S
Zr1502     O1503   2.433       .  S
Zr1502     O1504   2.431       .  S
Zr1502     O1508   2.364       .  S
Zr1502     O1507   2.373       .  S
Zr1502     O1512   2.379       .  S
Zr1502     O1510   2.372       .  S
O1503      H1519   0.990       .  S
O1504      H1518   0.990       .  S
O1504      H1528   0.990       .  S
Zr1505     O1508   2.384       .  S
Zr1505     O1510   2.392       .  S
Zr1505     O1511   2.396       .  S
Zr1506     O1507   2.400       .  S
Zr1506     O1509   2.400       .  S
Zr1506     O1512   2.396       .  S
O1507      H1515   0.965       .  S
O1510      H1514   0.968       .  S
O1511      H1516   0.967       .  S
C1529      C1530   1.344       .  D
C1529      H1531   1.088       .  S
C1530      H1532   1.086       .  S
C1533      C1534   1.351       .  D
C1533      H1535   1.086       .  S
C1534      H1536   1.087       .  S
C1537      C1538   1.350       .  D
C1537      H1539   1.087       .  S
C1538      H1540   1.086       .  S
C1541      C1542   1.344       .  D
C1541      H1543   1.086       .  S
C1542      H1544   1.088       .  S
C1545      C1546   1.349       .  D
C1545      H1547   1.087       .  S
C1546      H1548   1.087       .  S
C1549      C1550   1.344       .  D
C1549      H1551   1.088       .  S
C1550      H1552   1.086       .  S
C1553      C1554   1.351       .  D
C1553      H1555   1.087       .  S
C1554      H1556   1.086       .  S
C1557      C1558   1.348       .  D
C1557      H1559   1.087       .  S
C1558      H1560   1.086       .  S
C1561      C1562   1.351       .  D
C1561      H1563   1.086       .  S
C1562      H1564   1.087       .  S
C1565      C1566   1.344       .  D
C1565      H1567   1.087       .  S
C1566      H1568   1.087       .  S
C1569      C1570   1.345       .  D
C1569      H1571   1.088       .  S
C1570      H1572   1.087       .  S
C1573      C1574   1.348       .  D
C1573      H1575   1.087       .  S
C1574      H1576   1.086       .  S
C1577      C1578   1.347       .  D
C1577      H1579   1.088       .  S
C1578      H1580   1.086       .  S
C1581      C1582   1.352       .  D
C1581      H1583   1.086       .  S
C1582      H1584   1.087       .  S
C1585      C1586   1.349       .  D
C1585      H1587   1.087       .  S
C1586      H1588   1.086       .  S
C1589      C1590   1.349       .  D
C1589      H1591   1.086       .  S
C1590      H1592   1.087       .  S
C1593      C1594   1.204       .  T
C1595      C1596   1.204       .  T
C1597      C3273   1.445       .  S
C1597      C1598   1.203       .  T
C1599      C1600   1.199       .  T
C1601      C1602   1.200       .  T
C1603      C1604   1.195       .  T
C1605      C3775   1.446       .  S
C1605      C1606   1.204   1_655  T
C1607      C1608   1.196       .  T
C1608      C1629   1.433       .  S
N1609      C1614   1.349       .  A
N1609      H1641   1.039       .  S
N1610      C1617   1.349   1_556  A
N1610      C1618   1.348       .  A
N1611      C1616   1.352       .  A
N1611      H1642   1.039       .  S
N1612      C1619   1.347       .  A
N1612      C1620   1.349       .  A
C1613      C1621   1.388       .  A
C1613      C1629   1.402       .  A
C1614      C1630   1.407       .  A
C1614      C1622   1.388       .  A
C1615      C1623   1.388       .  A
C1616      C3775   1.409   1_455  A
C1616      C1624   1.387       .  A
C1617      C3773   1.407   1_455  A
C1617      C1625   1.386       .  A
C1618      C1632   1.410       .  A
C1618      C1626   1.388   1_556  A
C1619      C1627   1.388       .  A
C1620      C1628   1.386       .  A
C1620      C1631   1.405       .  A
C1621      H1633   1.082       .  S
C1622      H1634   1.082       .  S
C1623      H1635   1.082       .  S
C1624      H1636   1.082       .  S
C1625      C1626   1.376       .  A
C1625      H1637   1.082       .  S
C1626      H1638   1.082       .  S
C1627      C1628   1.374       .  A
C1627      H1639   1.082       .  S
C1628      H1640   1.083       .  S
C1629      C3761   1.405       .  A
C1630      C2139   1.437       .  S
C1631      C3760   1.405       .  A
C1631      C3749   1.442       .  S
N1643      C1648   1.351       .  A
N1643      C1647   1.352       .  A
N1643      H1675   1.040       .  S
N1644      C1651   1.349       .  A
N1644      C1652   1.348       .  A
N1645      C1650   1.349       .  A
N1645      C1649   1.352       .  A
N1645      H1676   1.038       .  S
N1646      C1653   1.349       .  A
N1646      C1654   1.348       .  A
C1647      C1655   1.388       .  A
C1647      C1663   1.408       .  A
C1648      C1664   1.407       .  A
C1648      C1656   1.388       .  A
C1649      C1657   1.387       .  A
C1650      C3809   1.409   1_455  A
C1650      C1658   1.389       .  A
C1651      C3807   1.410       .  A
C1651      C1659   1.388       .  A
C1652      C1666   1.408       .  A
C1652      C1660   1.387       .  A
C1653      C1661   1.385       .  A
C1654      C1662   1.388       .  A
C1654      C1665   1.409       .  A
C1655      C1656   1.371       .  A
C1655      H1667   1.082       .  S
C1656      H1668   1.082       .  S
C1657      C1658   1.372       .  A
C1657      H1669   1.083       .  S
C1658      H1670   1.082       .  S
C1659      C1660   1.374       .  A
C1659      H1671   1.083       .  S
C1660      H1672   1.082       .  S
C1661      C1662   1.375       .  A
C1661      H1673   1.082       .  S
C1662      H1674   1.082       .  S
C1663      C3795   1.409       .  A
C1663      C2135   1.444       .  S
C1664      C2132   1.445       .  S
C1665      C3794   1.406       .  A
C1665      C4277   1.436       .  S
Zr1677     O1678   2.440       .  S
Zr1677     O1683   2.470       .  S
Zr1677     O3831   2.424       .  S
Zr1677     O1688   2.411       .  S
O1678      H1734   0.991       .  S
O1678      H1742   0.990       .  S
O1679      C1699   1.289       .  A
O1680      C1701   1.283       .  A
O1681     Zr1691   2.460       .  S
O1681      C1700   1.290       .  A
O1682     Zr1690   2.413       .  S
O1682      C3845   1.278   1_455  A
O1683      C1700   1.290       .  A
O1684     Zr1692   2.440       .  S
O1684      C1699   1.286       .  A
O1685     Zr3834   2.403       .  S
O1685     Zr1692   2.376       .  S
O1686     Zr1692   2.372       .  S
O1686      H1721   0.965       .  S
O1687     Zr3821   2.408   1_455  S
O1687     Zr1707   2.395       .  S
O1687      H1724   0.966       .  S
O1688     Zr1691   2.389       .  S
O1688     Zr3851   2.407       .  S
Zr1689     O1714   2.441       .  S
Zr1689     O1704   2.461       .  S
Zr1689     O3839   2.397   1_455  S
Zr1689     O1696   2.415       .  S
Zr1690     O1709   2.442       .  S
Zr1690     O1702   2.434       .  S
Zr1690     O1703   2.426       .  S
Zr1690     O3829   2.401   1_455  S
Zr1690     O1696   2.395       .  S
Zr1691     O1693   2.436       .  S
Zr1691     O1715   2.437       .  S
Zr1691     O1717   2.419       .  S
Zr1691     O3842   2.400       .  S
Zr1692     O1718   2.435       .  S
Zr1692     O1719   2.435       .  S
Zr1692     O1694   2.431       .  S
Zr1692     O1695   2.395       .  S
Zr1692     O3840   2.404       .  S
O1693      H1730   0.990       .  S
O1694      H1725   0.990       .  S
O1694      H1739   0.990       .  S
O1695     Zr3833   2.409       .  S
O1696     Zr3836   2.405   1_455  S
O1696      H1722   0.967       .  S
O1697     Zr1707   2.371       .  S
O1698     Zr3835   2.400   1_455  S
O1698     Zr1707   2.379       .  S
O1698      H1723   0.966       .  S
C1699      C2125   1.493       .  S
C1700      C2118   1.503       .  S
C1701      C2143   1.426       .  S
C1701      O3826   1.279       .  A
O1702      H1738   0.990       .  S
O1703      C1705   1.282       .  A
O1704      C1705   1.287       .  A
C1705      C2121   1.484       .  S
O1706     Zr1707   2.437       .  S
O1706      H1735   0.990       .  S
Zr1707     O1710   2.436       .  S
Zr1707     O1711   2.430       .  S
Zr1707     O1712   2.424       .  S
Zr1707     O3832   2.398   1_455  S
O1708      C1713   1.288       .  A
O1709      H1726   0.990       .  S
O1710      H1727   0.990       .  S
O1711      H1731   0.990       .  S
O1711      H1740   0.990   1_455  S
O1712      C1713   1.281       .  A
C1713      C2113   1.484       .  S
O1714      H1733   0.990       .  S
O1714      H1737   0.990       .  S
O1715      H1729   0.990       .  S
O1716      C1720   1.284       .  A
O1717      C3864   1.281       .  A
O1718      H1728   0.990       .  S
O1719      H3876   0.990       .  S
C1720      C2142   1.430       .  S
C1720      O3861   1.281   1_455  A
H1732      O3863   0.990       .  S
Zr1743     O1744   2.439       .  S
Zr1743     O1745   2.468       .  S
Zr1743     O1746   2.448       .  S
Zr1743     O1749   2.468       .  S
Zr1743     O1751   2.392       .  S
Zr1743     O1752   2.376       .  S
Zr1743     O3897   2.421   1_455  S
Zr1743     O1754   2.408       .  S
O1744      H1800   0.990       .  S
O1744      H1808   0.990       .  S
O1745      C1765   1.290       .  A
O1746      C1767   1.287   1_455  A
O1747     Zr1757   2.447       .  S
O1747      C1766   1.287       .  A
O1748     Zr1756   2.406       .  S
O1748      C3911   1.278       .  A
O1749      C1766   1.291       .  A
O1750     Zr1758   2.443       .  S
O1750      C1765   1.287       .  A
O1751     Zr3900   2.406   1_455  S
O1751     Zr1758   2.371       .  S
O1752     Zr1757   2.375       .  S
O1752     Zr1758   2.376       .  S
O1752      H1787   0.966       .  S
O1753     Zr3887   2.416       .  S
O1753     Zr1756   2.403       .  S
O1753     Zr1773   2.395       .  S
O1753      H1790   0.965       .  S
O1754     Zr1757   2.383       .  S
O1754     Zr3917   2.405   1_455  S
Zr1755     O1780   2.443       .  S
Zr1755     O1774   2.447       .  S
Zr1755     O1782   2.435       .  S
Zr1755     O1770   2.456       .  S
Zr1755     O3905   2.414       .  S
Zr1755     O1762   2.409       .  S
Zr1755     O1763   2.374       .  S
Zr1755     O1764   2.389       .  S
Zr1756     O1775   2.438       .  S
Zr1756     O1768   2.435       .  S
Zr1756     O1769   2.437       .  S
Zr1756     O3895   2.398       .  S
Zr1756     O1762   2.390       .  S
Zr1756     O1763   2.370       .  S
Zr1757     O1759   2.436       .  S
Zr1757     O1781   2.439       .  S
Zr1757     O1783   2.411       .  S
Zr1757     O1761   2.400       .  S
Zr1757     O3908   2.396   1_455  S
Zr1758     O1784   2.436       .  S
Zr1758     O1785   2.435       .  S
Zr1758     O1760   2.435       .  S
Zr1758     O1761   2.406       .  S
Zr1758     O3906   2.404   1_455  S
O1759      H1796   0.990       .  S
O1760      H1791   0.990       .  S
O1760      H1805   0.989   1_455  S
O1761     Zr3899   2.415   1_455  S
O1762     Zr3902   2.410       .  S
O1762      H1788   0.966       .  S
O1763     Zr1773   2.368       .  S
O1764     Zr3901   2.392       .  S
O1764     Zr1773   2.379       .  S
O1764      H1789   0.966       .  S
C1765      C2105   1.500       .  S
C1766      C2098   1.498       .  S
C1767      C2134   1.428       .  S
C1767      O3892   1.279       .  A
O1768      H1804   0.990       .  S
O1769      C1771   1.285       .  A
O1770      C1771   1.288       .  A
C1771      C2109   1.489       .  S
O1772     Zr1773   2.440       .  S
O1772      H1801   0.990       .  S
Zr1773     O1776   2.438       .  S
Zr1773     O1777   2.431       .  S
Zr1773     O1778   2.434       .  S
Zr1773     O3898   2.404       .  S
O1774      C1779   1.286       .  A
O1775      H1792   0.990       .  S
O1775      H1807   0.990       .  S
O1776      H1793   0.990       .  S
O1777      H1797   0.990       .  S
O1777      H1806   0.989       .  S
O1778      C1779   1.286       .  A
C1779      C2102   1.489       .  S
O1780      H1799   0.990       .  S
O1780      H1803   0.990       .  S
O1781      H1795   0.990       .  S
O1781      H1802   0.990       .  S
O1782      C1786   1.284       .  A
O1783      C3930   1.280   1_455  A
O1784      H1794   0.991       .  S
O1785      H3942   0.990   1_455  S
C1786      C2136   1.427       .  S
C1786      O3927   1.279       .  A
H1798      O3929   0.990       .  S
Zr1809     O1810   2.438       .  S
Zr1809     O1815   2.456       .  S
Zr1809     O1820   2.410       .  S
O1810      H1866   0.991       .  S
O1810      H1874   0.990       .  S
O1811      C1831   1.288       .  A
O1812      C1833   1.286       .  A
O1813     Zr1823   2.429       .  S
O1813      C1832   1.283       .  A
O1814     Zr1822   2.392       .  S
O1815      C1832   1.289       .  A
O1816     Zr1824   2.433       .  S
O1816      C1831   1.285       .  A
O1817     Zr1824   2.372       .  S
O1818     Zr1824   2.370       .  S
O1818      H1853   0.966       .  S
O1819     Zr1839   2.393       .  S
O1819      H1856   0.966       .  S
O1820     Zr1823   2.385       .  S
Zr1821     O1846   2.443       .  S
Zr1821     O1836   2.459       .  S
Zr1821     O1828   2.411       .  S
Zr1822     O1841   2.438       .  S
Zr1822     O1834   2.436       .  S
Zr1822     O1835   2.419       .  S
Zr1822     O1828   2.387       .  S
Zr1823     O1825   2.435       .  S
Zr1823     O1847   2.438       .  S
Zr1823     O1849   2.397       .  S
Zr1824     O1850   2.436       .  S
Zr1824     O1851   2.436       .  S
Zr1824     O1826   2.430       .  S
Zr1824     O1827   2.397       .  S
O1825      H1862   0.990       .  S
O1826      H1857   0.989       .  S
O1826      H1871   0.990       .  S
O1828      H1854   0.966       .  S
O1829     Zr1839   2.370       .  S
O1830     Zr1839   2.374       .  S
O1830      H1855   0.965       .  S
C1831      C2086   1.495       .  S
C1832      C2093   1.484       .  S
C1833      C2137   1.423       .  S
O1834      H1870   0.990       .  S
O1835      C1837   1.281       .  A
O1836      C1837   1.289       .  A
C1837      C2081   1.483       .  S
O1838     Zr1839   2.435       .  S
O1838      H1867   0.990       .  S
Zr1839     O1842   2.436       .  S
Zr1839     O1843   2.431       .  S
Zr1839     O1844   2.436       .  S
O1840      C1845   1.287       .  A
O1841      H1858   0.990       .  S
O1842      H1859   0.990       .  S
O1843      H1863   0.990       .  S
O1843      H1872   0.988       .  S
O1844      C1845   1.285       .  A
C1845      C2090   1.496       .  S
O1846      H1865   0.991       .  S
O1846      H1869   0.990       .  S
O1847      H1861   0.990       .  S
O1848      C1852   1.283       .  A
O1850      H1860   0.990       .  S
C1852      C2140   1.422       .  S
Zr1875     O1876   2.443       .  S
Zr1875     O1877   2.471       .  S
Zr1875     O1878   2.439       .  S
Zr1875     O1881   2.432       .  S
Zr1875     O1883   2.383       .  S
Zr1875     O1884   2.380       .  S
Zr1875     O1886   2.414       .  S
O1876      H1932   0.991       .  S
O1876      H1940   0.991       .  S
O1877      C1897   1.290       .  A
O1878      C1899   1.284       .  A
O1879     Zr1889   2.458       .  S
O1879      C1898   1.291       .  A
O1880     Zr1888   2.410       .  S
O1881      C1898   1.283       .  A
O1882     Zr1890   2.430       .  S
O1882      C1897   1.284       .  A
O1883     Zr1890   2.378       .  S
O1884     Zr1889   2.381       .  S
O1884     Zr1890   2.375       .  S
O1884      H1919   0.967       .  S
O1885     Zr1888   2.404       .  S
O1885     Zr1905   2.397       .  S
O1885      H1922   0.966       .  S
O1886     Zr1889   2.389       .  S
Zr1887     O1912   2.444       .  S
Zr1887     O1906   2.454       .  S
Zr1887     O1914   2.427       .  S
Zr1887     O1902   2.448       .  S
Zr1887     O1894   2.410       .  S
Zr1887     O1895   2.370       .  S
Zr1887     O1896   2.389       .  S
Zr1888     O1907   2.438       .  S
Zr1888     O1900   2.437       .  S
Zr1888     O1901   2.441       .  S
Zr1888     O1894   2.391       .  S
Zr1888     O1895   2.374       .  S
Zr1889     O1891   2.435       .  S
Zr1889     O1913   2.440       .  S
Zr1889     O1915   2.427       .  S
Zr1889     O1893   2.400       .  S
Zr1890     O1916   2.434       .  S
Zr1890     O1917   2.434       .  S
Zr1890     O1892   2.427       .  S
Zr1890     O1893   2.392       .  S
O1891      H1928   0.990       .  S
O1892      H1923   0.991       .  S
O1892      H1937   0.990       .  S
O1894      H1920   0.966       .  S
O1895     Zr1905   2.365       .  S
O1896     Zr1905   2.374       .  S
O1896      H1921   0.965       .  S
C1897      C2065   1.497       .  S
C1898      C2073   1.491       .  S
C1899      C2131   1.428       .  S
O1900      H1936   0.990       .  S
O1901      C1903   1.285       .  A
O1902      C1903   1.287       .  A
C1903      C2070   1.486       .  S
O1904     Zr1905   2.434       .  S
O1904      H1933   0.990   1_565  S
Zr1905     O1908   2.437       .  S
Zr1905     O1909   2.436       .  S
Zr1905     O1910   2.440       .  S
O1906      C1911   1.287       .  A
O1907      H1924   0.990       .  S
O1907      H1939   0.990       .  S
O1908      H1925   0.990       .  S
O1909      H1929   0.990       .  S
O1909      H1938   0.989       .  S
O1910      C1911   1.286       .  A
C1911      C2077   1.492       .  S
O1912      H1931   0.990       .  S
O1912      H1935   0.990       .  S
O1913      H1927   0.990       .  S
O1913      H1934   0.990       .  S
O1914      C1918   1.283       .  A
O1916      H1926   0.990       .  S
C1918      C2130   1.425       .  S
O1941     Zr1953   2.453       .  S
O1941      C1943   1.290       .  A
O1942     Zr1979   2.461       .  S
O1942      C1943   1.292       .  A
C1943      C2126   1.489       .  S
O1944     Zr1956   2.458       .  S
O1944      C1946   1.292       .  A
O1945     Zr1980   2.439       .  S
O1945      C1946   1.289       .  A
C1946      C2069   1.489       .  S
O1947     Zr1956   2.431       .  S
O1947      C1949   1.285       .  A
O1948     Zr1979   2.464       .  S
O1948      C1949   1.293       .  A
C1949      C2101   1.481       .  S
O1950     Zr1953   2.467       .  S
O1950      C1952   1.293       .  A
O1951     Zr1980   2.435       .  S
O1951      C1952   1.287       .  A
C1952      C2094   1.487       .  S
Zr1953     O1954   2.435       .  S
Zr1953     O1955   2.429       .  S
Zr1953     O1959   2.367       .  S
Zr1953     O1960   2.371       .  S
Zr1953     O1983   2.368       .  S
Zr1953     O1985   2.381       .  S
O1954      H1997   0.990       .  S
O1955      H1996   0.990       .  S
O1955      H2000   0.990       .  S
Zr1956     O1957   2.437       .  S
Zr1956     O1958   2.429       .  S
Zr1956     O1960   2.362       .  S
Zr1956     O1959   2.365       .  S
Zr1956     O1984   2.382       .  S
Zr1956     O1986   2.377       .  S
O1957      H1998   0.990       .  S
O1957      H2001   0.990       .  S
O1958      H1991   0.990       .  S
O1959     Zr1979   2.391       .  S
O1960     Zr1980   2.393       .  S
O1960      H1987   0.965       .  S
O1961     Zr1973   2.463       .  S
O1961      C1963   1.292       .  A
O1962     Zr1980   2.434       .  S
O1962      C1963   1.287       .  A
C1963      C2122   1.488       .  S
O1964     Zr1976   2.443       .  S
O1964      C1966   1.288       .  A
O1965     Zr1979   2.462       .  S
O1965      C1966   1.292       .  A
C1966      C2066   1.486       .  S
O1967     Zr1976   2.472       .  S
O1967      C1969   1.294       .  A
O1968     Zr1980   2.451       .  S
O1968      C1969   1.291       .  A
C1969      C2097   1.500       .  S
O1970     Zr1973   2.441       .  S
O1970      C1972   1.287       .  A
O1971     Zr1979   2.465       .  S
O1971      C1972   1.293       .  A
C1972      C2089   1.486       .  S
Zr1973     O1974   2.438       .  S
Zr1973     O1975   2.432       .  S
Zr1973     O1981   2.370       .  S
Zr1973     O1982   2.369       .  S
Zr1973     O1985   2.382       .  S
Zr1973     O1983   2.371       .  S
O1974      H1994   0.990       .  S
O1974      H1999   0.990       .  S
O1975      H1995   0.990       .  S
Zr1976     O1977   2.434       .  S
Zr1976     O1978   2.432       .  S
Zr1976     O1982   2.373       .  S
Zr1976     O1981   2.372       .  S
Zr1976     O1986   2.367       .  S
Zr1976     O1984   2.381       .  S
O1977      H1993   0.990       .  S
O1978      H1992   0.990       .  S
O1978      H2002   0.990       .  S
Zr1979     O1982   2.396       .  S
Zr1979     O1984   2.406       .  S
Zr1979     O1985   2.409       .  S
Zr1980     O1981   2.392       .  S
Zr1980     O1983   2.393       .  S
Zr1980     O1986   2.388       .  S
O1981      H1989   0.966       .  S
O1984      H1988   0.967       .  S
O1985      H1990   0.967       .  S
O2003     Zr2015   2.456       .  S
O2003      C2005   1.291       .  A
O2004     Zr2041   2.444       .  S
O2004      C2005   1.290       .  A
C2005      C2110   1.493       .  S
O2006     Zr2018   2.443       .  S
O2006      C2008   1.288       .  A
O2007     Zr2042   2.469       .  S
O2007      C2008   1.294       .  A
C2008      C2085   1.487       .  S
O2009     Zr2018   2.453       .  S
O2009      C2011   1.290       .  A
O2010     Zr2041   2.476       .  S
O2010      C2011   1.296       .  A
C2011      C2117   1.507       .  S
O2012     Zr2015   2.441       .  S
O2012      C2014   1.287       .  A
O2013     Zr2042   2.468       .  S
O2013      C2014   1.294       .  A
C2014      C2078   1.484       .  S
Zr2015     O2016   2.433       .  S
Zr2015     O2017   2.432       .  S
Zr2015     O2021   2.371       .  S
Zr2015     O2022   2.376       .  S
Zr2015     O2045   2.379       .  S
Zr2015     O2047   2.369       .  S
O2016      H2059   0.990       .  S
O2017      H2058   0.990       .  S
O2017      H2062   0.989       .  S
Zr2018     O2019   2.435       .  S
Zr2018     O2020   2.434       .  S
Zr2018     O2022   2.369       .  S
Zr2018     O2021   2.369       .  S
Zr2018     O2046   2.369       .  S
Zr2018     O2048   2.376       .  S
O2019      H2060   0.990       .  S
O2019      H2063   0.990       .  S
O2020      H2053   0.990       .  S
O2021     Zr2041   2.382       .  S
O2022     Zr2042   2.401       .  S
O2022      H2049   0.964       .  S
O2023     Zr2035   2.454       .  S
O2023      C2025   1.289       .  A
O2024     Zr2042   2.472       .  S
O2024      C2025   1.294       .  A
C2025      C2106   1.491       .  S
O2026     Zr2038   2.468       .  S
O2026      C2028   1.294       .  A
O2027     Zr2041   2.425       .  S
O2027      C2028   1.286       .  A
C2028      C2082   1.485       .  S
O2029     Zr2038   2.456       .  S
O2029      C2031   1.291       .  A
O2030     Zr2042   2.449       .  S
O2030      C2031   1.292       .  A
C2031      C2114   1.483       .  S
O2032     Zr2035   2.429       .  S
O2032      C2034   1.285       .  A
O2033     Zr2041   2.471       .  S
O2033      C2034   1.296       .  A
C2034      C2074   1.486       .  S
Zr2035     O2036   2.440       .  S
Zr2035     O2037   2.434       .  S
Zr2035     O2043   2.365       .  S
Zr2035     O2044   2.372       .  S
Zr2035     O2047   2.383       .  S
Zr2035     O2045   2.376       .  S
O2036      H2056   0.991       .  S
O2036      H2061   0.990       .  S
O2037      H2057   0.990       .  S
Zr2038     O2039   2.435       .  S
Zr2038     O2040   2.425       .  S
Zr2038     O2044   2.362       .  S
Zr2038     O2043   2.372       .  S
Zr2038     O2048   2.379       .  S
Zr2038     O2046   2.370       .  S
O2039      H2055   0.990       .  S
O2040      H2054   0.990       .  S
O2040      H2064   0.990       .  S
Zr2041     O2044   2.390       .  S
Zr2041     O2046   2.394       .  S
Zr2041     O2047   2.400       .  S
Zr2042     O2043   2.400       .  S
Zr2042     O2045   2.401       .  S
Zr2042     O2048   2.404       .  S
O2043      H2051   0.966       .  S
O2046      H2050   0.967       .  S
O2047      H2052   0.967       .  S
C2065      C2066   1.352       .  D
C2065      H2067   1.086       .  S
C2066      H2068   1.087       .  S
C2069      C2070   1.349       .  D
C2069      H2071   1.086       .  S
C2070      H2072   1.087       .  S
C2073      C2074   1.344       .  D
C2073      H2075   1.086       .  S
C2074      H2076   1.088       .  S
C2077      C2078   1.347       .  D
C2077      H2079   1.086       .  S
C2078      H2080   1.088       .  S
C2081      C2082   1.344       .  D
C2081      H2083   1.087       .  S
C2082      H2084   1.087       .  S
C2085      C2086   1.350       .  D
C2085      H2087   1.088       .  S
C2086      H2088   1.086       .  S
C2089      C2090   1.350       .  D
C2089      H2091   1.087       .  S
C2090      H2092   1.086       .  S
C2093      C2094   1.346       .  D
C2093      H2095   1.087       .  S
C2094      H2096   1.086       .  S
C2097      C2098   1.353       .  D
C2097      H2099   1.086       .  S
C2098      H2100   1.087       .  S
C2101      C2102   1.346       .  D
C2101      H2103   1.088       .  S
C2102      H2104   1.086       .  S
C2105      C2106   1.352       .  D
C2105      H2107   1.086       .  S
C2106      H2108   1.087       .  S
C2109      C2110   1.350       .  D
C2109      H2111   1.087       .  S
C2110      H2112   1.086       .  S
C2113      C2114   1.346       .  D
C2113      H2115   1.088       .  S
C2114      H2116   1.087       .  S
C2117      C2118   1.359       .  D
C2117      H2119   1.086       .  S
C2118      H2120   1.087       .  S
C2121      C2122   1.347       .  D
C2121      H2123   1.087       .  S
C2122      H2124   1.086       .  S
C2125      C2126   1.350       .  D
C2125      H2127   1.086       .  S
C2126      H2128   1.088       .  S
C2129      C2130   1.201   1_545  T
C2131      C2132   1.203       .  T
C2133      C3809   1.443       .  S
C2133      C2134   1.203       .  T
C2135      C2136   1.202       .  T
C2137      C2138   1.200   1_565  T
C2139      C2140   1.199       .  T
C2141      C3239   1.445   1_455  S
C2141      C2142   1.204       .  T
C2143      C2144   1.201       .  T
N2145      C2150   1.350       .  A
N2145      C2685   1.352       .  A
N2145      H2177   1.040       .  S
N2146      C2153   1.350       .  A
N2146      C2154   1.347       .  A
N2147      C2152   1.349       .  A
N2147      C2687   1.347       .  A
N2147      H2178   1.038       .  S
N2148      C2155   1.347   1_556  A
N2148      C2156   1.348       .  A
C2149      N2681   1.350       .  A
C2149      C2157   1.388       .  A
C2149      C2165   1.407   1_655  A
C2150      C2166   1.409       .  A
C2150      C2158   1.389       .  A
C2151      N2683   1.347       .  A
C2151      C2159   1.388       .  A
C2151      C3240   1.404       .  A
C2152      C2160   1.386       .  A
C2153      C2161   1.386       .  A
C2154      C2168   1.409       .  A
C2154      C2162   1.388       .  A
C2155      C2163   1.386       .  A
C2155      C3238   1.403       .  A
C2156      C2164   1.387       .  A
C2156      C2167   1.407   1_655  A
C2157      C2694   1.373       .  A
C2157      H2169   1.083       .  S
C2158      C2693   1.372       .  A
C2158      H2170   1.082       .  S
C2159      C2696   1.374       .  A
C2159      H2171   1.082       .  S
C2160      C2695   1.374       .  A
C2160      H2172   1.082       .  S
C2161      C2162   1.377       .  A
C2161      H2173   1.083       .  S
C2162      H2174   1.083       .  S
C2163      C2164   1.373   1_554  A
C2163      H2175   1.082       .  S
C2164      H2176   1.082       .  S
C2165      C3216   1.441       .  S
C2166      C3227   1.407   1_545  A
C2166      C2675   1.436       .  S
C2168      C3223   1.407   1_545  A
C2168      C3746   1.435       .  S
N2179      C2184   1.349       .  A
N2179      C2183   1.349       .  A
N2179      H2211   1.039       .  S
N2180      C2187   1.351       .  A
N2180      C2188   1.351       .  A
N2181      C2186   1.349       .  A
N2181      C2185   1.350       .  A
N2181      H2212   1.039       .  S
N2182      C2189   1.353       .  A
N2182      C2190   1.353       .  A
C2183      C2191   1.387       .  A
C2183      C2199   1.404   1_655  A
C2184      C2200   1.405   1_545  A
C2184      C2192   1.388       .  A
C2185      C2193   1.386       .  A
C2185      C3274   1.405       .  A
C2186      C2194   1.387       .  A
C2187      C2195   1.385       .  A
C2188      C2202   1.412   1_545  A
C2188      C2196   1.387       .  A
C2189      C2197   1.386       .  A
C2189      C3272   1.416       .  A
C2190      C2198   1.386       .  A
C2190      C2201   1.417       .  A
C2191      C2192   1.373       .  A
C2191      H2203   1.082       .  S
C2192      H2204   1.082       .  S
C2193      C2194   1.373       .  A
C2193      H2205   1.082       .  S
C2194      H2206   1.082       .  S
C2195      C2196   1.372       .  A
C2195      H2207   1.082       .  S
C2196      H2208   1.082       .  S
C2197      C2198   1.378       .  A
C2197      H2209   1.082       .  S
C2198      H2210   1.082       .  S
C2199      C2671   1.442   1_455  S
C2200      C3261   1.408       .  A
C2200      C2668   1.440       .  S
C2202      C3257   1.410       .  A
C2202      C3737   1.443       .  S
Zr2213     O2214   2.441       .  S
Zr2213     O2751   2.468       .  S
Zr2213     O2752   2.435       .  S
Zr2213     O2219   2.441       .  S
Zr2213     O2757   2.385       .  S
Zr2213     O2758   2.378       .  S
Zr2213     O2224   2.412       .  S
O2214      H2270   0.990       .  S
O2214      H2278   0.990       .  S
O2215     Zr2749   2.485   1_554  S
O2215      C2235   1.293       .  A
O2216     Zr2749   2.447   1_554  S
O2216      C2237   1.285       .  A
O2217     Zr2227   2.460       .  S
O2217      C2236   1.291       .  A
O2218     Zr2226   2.407       .  S
O2219      C2236   1.285       .  A
O2220     Zr2228   2.410       .  S
O2220      C2235   1.279       .  A
O2221     Zr2749   2.388   1_554  S
O2221     Zr2228   2.382       .  S
O2222     Zr2749   2.379   1_554  S
O2222     Zr2763   2.369   1_554  S
O2222     Zr2228   2.378       .  S
O2222      H2257   0.964       .  S
O2223     Zr2762   2.413       .  S
O2223     Zr2243   2.383       .  S
O2223      H2260   0.965       .  S
O2224     Zr2227   2.385       .  S
Zr2225     O2250   2.442       .  S
Zr2225     O2780   2.438   1_554  S
Zr2225     O2788   2.430   1_554  S
Zr2225     O2240   2.457       .  S
Zr2225     O2232   2.402       .  S
Zr2225     O2769   2.371   1_554  S
Zr2225     O2770   2.387   1_554  S
Zr2226     O2245   2.439       .  S
Zr2226     O2238   2.436       .  S
Zr2226     O2239   2.433       .  S
Zr2226     O2759   2.399   1_554  S
Zr2226     O2232   2.392       .  S
Zr2226     O2769   2.377   1_554  S
Zr2227     O2229   2.434       .  S
Zr2227     O2251   2.439       .  S
Zr2227     O2253   2.430       .  S
Zr2227     O2758   2.378       .  S
Zr2227     O2767   2.397       .  S
Zr2228     O2254   2.434       .  S
Zr2228     O2255   2.436       .  S
Zr2228     O2230   2.431       .  S
Zr2228     O2231   2.391       .  S
O2229      H2266   0.990       .  S
O2230      H2261   0.991       .  S
O2230      H2275   0.990       .  S
O2231     Zr2763   2.401   1_554  S
O2232      H2258   0.965       .  S
O2233     Zr2761   2.376       .  S
O2233     Zr2762   2.382       .  S
O2233     Zr2243   2.365       .  S
O2234     Zr2761   2.396       .  S
O2234     Zr2243   2.379       .  S
O2234      H2259   0.965       .  S
C2235      C2661   1.482       .  S
C2236      C2654   1.491       .  S
C2237      C2679   1.434       .  S
O2238      H2274   0.990       .  S
O2239      C2241   1.284       .  A
O2240      C2241   1.289       .  A
C2241      C2657   1.486       .  S
O2242     Zr2243   2.434       .  S
O2242      H2271   0.990       .  S
Zr2243     O2246   2.436       .  S
Zr2243     O2247   2.428       .  S
Zr2243     O2248   2.426       .  S
O2244     Zr2761   2.435       .  S
O2244      C2249   1.284       .  A
O2245      H2262   0.990       .  S
O2245      H2813   0.990   1_554  S
O2246      H2263   0.990       .  S
O2247      H2267   0.990       .  S
O2247      H2276   0.989       .  S
O2248      C2249   1.282       .  A
C2249      C2649   1.474       .  S
O2250      H2269   0.990       .  S
O2250      H2273   0.990       .  S
O2251      H2265   0.990       .  S
O2251      H2808   0.989       .  S
O2252     Zr2761   2.434       .  S
O2252      C2256   1.284       .  A
O2254      H2264   0.990       .  S
C2256      C2678   1.425       .  S
H2272      O2787   0.990       .  S
H2277      O2781   0.990       .  S
Zr2279     O2280   2.440       .  S
Zr2279     O2281   2.493       .  S
Zr2279     O2282   2.457       .  S
Zr2279     O2285   2.443       .  S
Zr2279     O2287   2.387       .  S
Zr2279     O2288   2.380       .  S
Zr2279     O2290   2.422       .  S
O2280      H2336   0.990       .  S
O2280      H2344   0.990       .  S
O2281      C2301   1.294       .  A
O2282      C2303   1.288       .  A
O2283     Zr2293   2.447       .  S
O2283      C2302   1.287       .  A
O2284     Zr2292   2.406       .  S
O2285      C2302   1.286       .  A
O2286     Zr2294   2.417       .  S
O2286      C2301   1.281       .  A
O2287     Zr2294   2.374       .  S
O2288     Zr2293   2.372       .  S
O2288     Zr2294   2.379       .  S
O2288      H2323   0.965       .  S
O2289     Zr2292   2.406       .  S
O2289     Zr2309   2.397       .  S
O2289      H2326   0.966       .  S
O2290     Zr2293   2.387       .  S
Zr2291     O2316   2.446       .  S
Zr2291     O2310   2.442       .  S
Zr2291     O2318   2.433       .  S
Zr2291     O2306   2.455       .  S
Zr2291     O2298   2.405       .  S
Zr2291     O2299   2.374       .  S
Zr2291     O2300   2.388       .  S
Zr2292     O2311   2.440       .  S
Zr2292     O2304   2.437       .  S
Zr2292     O2305   2.428       .  S
Zr2292     O2298   2.386       .  S
Zr2292     O2299   2.382       .  S
Zr2293     O2295   2.436       .  S
Zr2293     O2317   2.439       .  S
Zr2293     O2319   2.408       .  S
Zr2293     O2297   2.396       .  S
Zr2294     O2320   2.435       .  S
Zr2294     O2321   2.435       .  S
Zr2294     O2296   2.432       .  S
Zr2294     O2297   2.393       .  S
O2295      H2332   0.990       .  S
O2296      H2327   0.990       .  S
O2296      H2341   0.989       .  S
O2298      H2324   0.966       .  S
O2299     Zr2309   2.368       .  S
O2300     Zr2309   2.372       .  S
O2300      H2325   0.966       .  S
C2301      C2641   1.490       .  S
C2302      C2634   1.486       .  S
C2303      C2670   1.430       .  S
O2304      H2340   0.990       .  S
O2305      C2307   1.283       .  A
O2306      C2307   1.288       .  A
C2307      C2645   1.482       .  S
O2308     Zr2309   2.439       .  S
O2308      H2337   0.990       .  S
Zr2309     O2312   2.437       .  S
Zr2309     O2313   2.431       .  S
Zr2309     O2314   2.446       .  S
O2310      C2315   1.285       .  A
O2311      H2328   0.990       .  S
O2311      H2343   0.990       .  S
O2312      H2329   0.990       .  S
O2313      H2333   0.990       .  S
O2313      H2342   0.989   1_655  S
O2314      C2315   1.288       .  A
C2315      C2638   1.490       .  S
O2316      H2335   0.990       .  S
O2316      H2339   0.990       .  S
O2317      H2331   0.990       .  S
O2317      H2338   0.990       .  S
O2318      C2322   1.284       .  A
O2320      H2330   0.990       .  S
C2322      C2672   1.426       .  S
Zr2345     O2346   2.437       .  S
Zr2345     O2883   2.450   1_554  S
Zr2345     O2884   2.429   1_554  S
Zr2345     O2351   2.446       .  S
Zr2345     O2889   2.382   1_554  S
Zr2345     O2890   2.374   1_554  S
Zr2345     O3427   2.412       .  S
Zr2345     O2356   2.411       .  S
O2346      H2402   0.991       .  S
O2346      H2410   0.990       .  S
O2347     Zr2881   2.437       .  S
O2347      C2367   1.284       .  A
O2348     Zr2881   2.426       .  S
O2348      C2369   1.282       .  A
O2349     Zr2359   2.438       .  S
O2349      C2368   1.285       .  A
O2350     Zr2358   2.403       .  S
O2350      C3441   1.277   1_545  A
O2351      C2368   1.287       .  A
O2352     Zr2360   2.442       .  S
O2352      C2367   1.287       .  A
O2353     Zr2881   2.382       .  S
O2353     Zr3430   2.389       .  S
O2353     Zr2360   2.371       .  S
O2354     Zr2881   2.379       .  S
O2354     Zr2895   2.375       .  S
O2354     Zr2360   2.363       .  S
O2354      H2389   0.964       .  S
O2355     Zr3417   2.416   1_545  S
O2355     Zr2894   2.401   1_554  S
O2355     Zr2375   2.392       .  S
O2355      H2392   0.967       .  S
O2356     Zr2359   2.386       .  S
O2356     Zr3447   2.410       .  S
Zr2357     O2382   2.444       .  S
Zr2357     O2912   2.443       .  S
Zr2357     O2920   2.425       .  S
Zr2357     O2372   2.451       .  S
Zr2357     O3435   2.410   1_545  S
Zr2357     O2364   2.406       .  S
Zr2357     O2901   2.373       .  S
Zr2357     O2902   2.393       .  S
Zr2358     O2377   2.440       .  S
Zr2358     O2370   2.434       .  S
Zr2358     O2371   2.436       .  S
Zr2358     O3425   2.399   1_545  S
Zr2358     O2891   2.399       .  S
Zr2358     O2364   2.389       .  S
Zr2358     O2901   2.376       .  S
Zr2359     O2361   2.434       .  S
Zr2359     O2383   2.438       .  S
Zr2359     O2385   2.400       .  S
Zr2359     O2890   2.377   1_554  S
Zr2359     O2899   2.398   1_554  S
Zr2359     O3438   2.397       .  S
Zr2360     O2386   2.436       .  S
Zr2360     O2387   2.437       .  S
Zr2360     O2362   2.422       .  S
Zr2360     O2363   2.391       .  S
Zr2360     O3436   2.408       .  S
O2361      H2398   0.990       .  S
O2362      H2393   0.991       .  S
O2362      H2407   0.990       .  S
O2363     Zr3429   2.405       .  S
O2363     Zr2895   2.395       .  S
O2364     Zr3432   2.404   1_545  S
O2364      H2390   0.966       .  S
O2365     Zr2893   2.369   1_554  S
O2365     Zr2894   2.374   1_554  S
O2365     Zr2375   2.365       .  S
O2366     Zr2893   2.387   1_554  S
O2366     Zr3431   2.394   1_545  S
O2366     Zr2375   2.374       .  S
O2366      H2391   0.965       .  S
C2367      C2622   1.483       .  S
C2368      C2629   1.484       .  S
C2369      C2673   1.418       .  S
C2369      O3422   1.277       .  A
O2370      H2406   0.990       .  S
O2371      C2373   1.285       .  A
O2372      C2373   1.288       .  A
C2373      C2617   1.485       .  S
O2374     Zr2375   2.439       .  S
O2374      H2403   0.990       .  S
Zr2375     O2378   2.437       .  S
Zr2375     O2379   2.429       .  S
Zr2375     O2380   2.444       .  S
Zr2375     O3428   2.409   1_545  S
O2376     Zr2893   2.449   1_554  S
O2376      C2381   1.287       .  A
O2377      H2394   0.990       .  S
O2377      H2945   0.990       .  S
O2378      H2395   0.990       .  S
O2379      H2399   0.989       .  S
O2379      H2408   0.989       .  S
O2380      C2381   1.288       .  A
C2381      C2626   1.496       .  S
O2382      H2401   0.990       .  S
O2382      H2405   0.990       .  S
O2383      H2397   0.990       .  S
O2383      H2940   0.990       .  S
O2384     Zr2893   2.419   1_554  S
O2384      C2388   1.282       .  A
O2385      C3460   1.277       .  A
O2386      H2396   0.990       .  S
O2387      H3472   0.990       .  S
C2388      C2676   1.419       .  S
C2388      O3457   1.280   1_545  A
H2400      O3459   0.990   1_545  S
H2404      O2919   0.990       .  S
H2409      O2913   0.990       .  S
Zr2411     O2412   2.440       .  S
Zr2411     O2413   2.471       .  S
Zr2411     O2414   2.433       .  S
Zr2411     O2417   2.422       .  S
Zr2411     O2419   2.382       .  S
Zr2411     O2420   2.378       .  S
Zr2411     O3493   2.415   1_545  S
Zr2411     O2422   2.413       .  S
O2412      H2468   0.990       .  S
O2412      H2476   0.990       .  S
O2413      C2433   1.290       .  A
O2414      C2435   1.282   1_545  A
O2415     Zr2425   2.471       .  S
O2415      C2434   1.293       .  A
O2416     Zr2424   2.412       .  S
O2416      C3507   1.278       .  A
O2417      C2434   1.281       .  A
O2418     Zr2426   2.428       .  S
O2418      C2433   1.284       .  A
O2419     Zr3496   2.396   1_545  S
O2419     Zr2426   2.376       .  S
O2420     Zr2425   2.376       .  S
O2420     Zr2426   2.374       .  S
O2420      H2455   0.965       .  S
O2421     Zr3483   2.421       .  S
O2421     Zr2424   2.407       .  S
O2421     Zr2441   2.387       .  S
O2421      H2458   0.965       .  S
O2422     Zr2425   2.389       .  S
O2422     Zr3513   2.409   1_545  S
Zr2423     O2448   2.446       .  S
Zr2423     O2442   2.434       .  S
Zr2423     O2450   2.432       .  S
Zr2423     O2438   2.469       .  S
Zr2423     O3501   2.405       .  S
Zr2423     O2430   2.400       .  S
Zr2423     O2431   2.375       .  S
Zr2423     O2432   2.393       .  S
Zr2424     O2443   2.441       .  S
Zr2424     O2436   2.435       .  S
Zr2424     O2437   2.442       .  S
Zr2424     O3491   2.406       .  S
Zr2424     O2430   2.386       .  S
Zr2424     O2431   2.381       .  S
Zr2425     O2427   2.434       .  S
Zr2425     O2449   2.438       .  S
Zr2425     O2451   2.426       .  S
Zr2425     O2429   2.406       .  S
Zr2425     O3504   2.398   1_545  S
Zr2426     O2452   2.435       .  S
Zr2426     O2453   2.436       .  S
Zr2426     O2428   2.430       .  S
Zr2426     O2429   2.400       .  S
Zr2426     O3502   2.406   1_545  S
O2427      H2464   0.990       .  S
O2428      H2459   0.990       .  S
O2428      H2473   0.990       .  S
O2429     Zr3495   2.416   1_545  S
O2430     Zr3498   2.394       .  S
O2430      H2456   0.966       .  S
O2431     Zr2441   2.370       .  S
O2432     Zr3497   2.390       .  S
O2432     Zr2441   2.370       .  S
O2432      H2457   0.965       .  S
C2433      C2601   1.496       .  S
C2434      C2609   1.489       .  S
C2435      C2667   1.424       .  S
C2435      O3488   1.278       .  A
O2436      H2472   0.990       .  S
O2437      C2439   1.286       .  A
O2438      C2439   1.290       .  A
C2439      C2606   1.494       .  S
O2440     Zr2441   2.439       .  S
O2440      H2469   0.990       .  S
Zr2441     O2444   2.437       .  S
Zr2441     O2445   2.430       .  S
Zr2441     O2446   2.436       .  S
Zr2441     O3494   2.406       .  S
O2442      C2447   1.283       .  A
O2443      H2460   0.990       .  S
O2443      H2475   0.990       .  S
O2444      H2461   0.990       .  S
O2445      H2465   0.989       .  S
O2445      H2474   0.989       .  S
O2446      C2447   1.286       .  A
C2447      C2613   1.478       .  S
O2448      H2467   0.990       .  S
O2448      H2471   0.990       .  S
O2449      H2463   0.990       .  S
O2449      H2470   0.990       .  S
O2450      C2454   1.284       .  A
O2451      C3526   1.283   1_545  A
O2452      H2462   0.990       .  S
O2453      H3538   0.990       .  S
C2454      C2666   1.423       .  S
C2454      O3523   1.279       .  A
H2466      O3525   0.990       .  S
O2477     Zr2489   2.464       .  S
O2477      C2479   1.294       .  A
O2478     Zr2515   2.434       .  S
O2478      C2479   1.287       .  A
C2479      C2662   1.491       .  S
O2480     Zr2492   2.476       .  S
O2480      C2482   1.293       .  A
O2481     Zr2516   2.445       .  S
O2481      C2482   1.289       .  A
C2482      C2605   1.499       .  S
O2483     Zr2492   2.441       .  S
O2483      C2485   1.287       .  A
O2484     Zr2515   2.462       .  S
O2484      C2485   1.293       .  A
C2485      C2637   1.485       .  S
O2486     Zr2489   2.455       .  S
O2486      C2488   1.292       .  A
O2487     Zr2516   2.444       .  S
O2487      C2488   1.289       .  A
C2488      C2630   1.487       .  S
Zr2489     O2490   2.434       .  S
Zr2489     O2491   2.430       .  S
Zr2489     O2495   2.363       .  S
Zr2489     O2496   2.380       .  S
Zr2489     O2519   2.378       .  S
Zr2489     O2521   2.380       .  S
O2490      H2533   0.990       .  S
O2491      H2532   0.990       .  S
O2491      H2536   0.990       .  S
Zr2492     O2493   2.439       .  S
Zr2492     O2494   2.431       .  S
Zr2492     O2496   2.367       .  S
Zr2492     O2495   2.373       .  S
Zr2492     O2520   2.384       .  S
Zr2492     O2522   2.369       .  S
O2493      H2534   0.991       .  S
O2493      H2537   0.990       .  S
O2494      H2527   0.990       .  S
O2495     Zr2515   2.393       .  S
O2496     Zr2516   2.397       .  S
O2496      H2523   0.965       .  S
O2497     Zr2509   2.462       .  S
O2497      C2499   1.291       .  A
O2498     Zr2516   2.439       .  S
O2498      C2499   1.288       .  A
C2499      C2658   1.491       .  S
O2500     Zr2512   2.444       .  S
O2500      C2502   1.288       .  A
O2501     Zr2515   2.460       .  S
O2501      C2502   1.292       .  A
C2502      C2602   1.487       .  S
O2503     Zr2512   2.446       .  S
O2503      C2505   1.289       .  A
O2504     Zr2516   2.451       .  S
O2504      C2505   1.291       .  A
C2505      C2633   1.490       .  S
O2506     Zr2509   2.443       .  S
O2506      C2508   1.287       .  A
O2507     Zr2515   2.462       .  S
O2507      C2508   1.292       .  A
C2508      C2625   1.484       .  S
Zr2509     O2510   2.438       .  S
Zr2509     O2511   2.433       .  S
Zr2509     O2517   2.368       .  S
Zr2509     O2518   2.371       .  S
Zr2509     O2521   2.373       .  S
Zr2509     O2519   2.372       .  S
O2510      H2530   0.990       .  S
O2510      H2535   0.990       .  S
O2511      H2531   0.990       .  S
Zr2512     O2513   2.433       .  S
Zr2512     O2514   2.428       .  S
Zr2512     O2518   2.363       .  S
Zr2512     O2517   2.372       .  S
Zr2512     O2522   2.375       .  S
Zr2512     O2520   2.378       .  S
O2513      H2529   0.990       .  S
O2514      H2528   0.990       .  S
O2514      H2538   0.990       .  S
Zr2515     O2518   2.387       .  S
Zr2515     O2520   2.405       .  S
Zr2515     O2521   2.403       .  S
Zr2516     O2517   2.395       .  S
Zr2516     O2519   2.395       .  S
Zr2516     O2522   2.392       .  S
O2517      H2525   0.965       .  S
O2520      H2524   0.967       .  S
O2521      H2526   0.966       .  S
O2539     Zr2551   2.447       .  S
O2539      C2541   1.290       .  A
O2540     Zr2577   2.442       .  S
O2540      C2541   1.289       .  A
C2541      C2646   1.489       .  S
O2542     Zr2554   2.436       .  S
O2542      C2544   1.285       .  A
O2543     Zr2578   2.452       .  S
O2543      C2544   1.291       .  A
C2544      C2621   1.478       .  S
O2545     Zr2554   2.424       .  S
O2545      C2547   1.285       .  A
O2546     Zr2577   2.480       .  S
O2546      C2547   1.296       .  A
C2547      C2653   1.497       .  S
O2548     Zr2551   2.442       .  S
O2548      C2550   1.288       .  A
O2549     Zr2578   2.445       .  S
O2549      C2550   1.290       .  A
C2550      C2614   1.476       .  S
Zr2551     O2552   2.433       .  S
Zr2551     O2553   2.431       .  S
Zr2551     O2557   2.364       .  S
Zr2551     O2558   2.369       .  S
Zr2551     O2581   2.375       .  S
Zr2551     O2583   2.374       .  S
O2552      H2595   0.990       .  S
O2553      H2594   0.990       .  S
O2553      H2598   0.990       .  S
Zr2554     O2555   2.441       .  S
Zr2554     O2556   2.430       .  S
Zr2554     O2558   2.358       .  S
Zr2554     O2557   2.368       .  S
Zr2554     O2582   2.372       .  S
Zr2554     O2584   2.369       .  S
O2555      H2596   0.991       .  S
O2555      H2599   0.990       .  S
O2556      H2589   0.990       .  S
O2557     Zr2577   2.383       .  S
O2558     Zr2578   2.393       .  S
O2558      H2585   0.964       .  S
O2559     Zr2571   2.462       .  S
O2559      C2561   1.291       .  A
O2560     Zr2578   2.452       .  S
O2560      C2561   1.290       .  A
C2561      C2642   1.495       .  S
O2562     Zr2574   2.454       .  S
O2562      C2564   1.291       .  A
O2563     Zr2577   2.442       .  S
O2563      C2564   1.290       .  A
C2564      C2618   1.489       .  S
O2565     Zr2574   2.435       .  S
O2565      C2567   1.289       .  A
O2566     Zr2578   2.443       .  S
O2566      C2567   1.289       .  A
C2567      C2650   1.477       .  S
O2568     Zr2571   2.433       .  S
O2568      C2570   1.286       .  A
O2569     Zr2577   2.468       .  S
O2569      C2570   1.296       .  A
C2570      C2610   1.489       .  S
Zr2571     O2572   2.439       .  S
Zr2571     O2573   2.427       .  S
Zr2571     O2579   2.360       .  S
Zr2571     O2580   2.376       .  S
Zr2571     O2583   2.381       .  S
Zr2571     O2581   2.368       .  S
O2572      H2592   0.991       .  S
O2572      H2597   0.990       .  S
O2573      H2593   0.990       .  S
Zr2574     O2575   2.434       .  S
Zr2574     O2576   2.431       .  S
Zr2574     O2580   2.360       .  S
Zr2574     O2579   2.376       .  S
Zr2574     O2584   2.382       .  S
Zr2574     O2582   2.377       .  S
O2575      H2591   0.990       .  S
O2576      H2590   0.990       .  S
O2576      H2600   0.990       .  S
Zr2577     O2580   2.389       .  S
Zr2577     O2582   2.395       .  S
Zr2577     O2583   2.406       .  S
Zr2578     O2579   2.396       .  S
Zr2578     O2581   2.394       .  S
Zr2578     O2584   2.397       .  S
O2579      H2587   0.965       .  S
O2582      H2586   0.967       .  S
O2583      H2588   0.968       .  S
C2601      C2602   1.352       .  D
C2601      H2603   1.086       .  S
C2602      H2604   1.088       .  S
C2605      C2606   1.352       .  D
C2605      H2607   1.086       .  S
C2606      H2608   1.087       .  S
C2609      C2610   1.343       .  D
C2609      H2611   1.086       .  S
C2610      H2612   1.088       .  S
C2613      C2614   1.343       .  D
C2613      H2615   1.086       .  S
C2614      H2616   1.088       .  S
C2617      C2618   1.349       .  D
C2617      H2619   1.087       .  S
C2618      H2620   1.086       .  S
C2621      C2622   1.343       .  D
C2621      H2623   1.088       .  S
C2622      H2624   1.086       .  S
C2625      C2626   1.349       .  D
C2625      H2627   1.086       .  S
C2626      H2628   1.087       .  S
C2629      C2630   1.348       .  D
C2629      H2631   1.087       .  S
C2630      H2632   1.086       .  S
C2633      C2634   1.352       .  D
C2633      H2635   1.086       .  S
C2634      H2636   1.087       .  S
C2637      C2638   1.345       .  D
C2637      H2639   1.088       .  S
C2638      H2640   1.086       .  S
C2641      C2642   1.347       .  D
C2641      H2643   1.088       .  S
C2642      H2644   1.086       .  S
C2645      C2646   1.348       .  D
C2645      H2647   1.087       .  S
C2646      H2648   1.086       .  S
C2649      C2650   1.346       .  D
C2649      H2651   1.088       .  S
C2650      H2652   1.086       .  S
C2653      C2654   1.359       .  D
C2653      H2655   1.086       .  S
C2654      H2656   1.087       .  S
C2657      C2658   1.349       .  D
C2657      H2659   1.087       .  S
C2658      H2660   1.086       .  S
C2661      C2662   1.343       .  D
C2661      H2663   1.088       .  S
C2662      H2664   1.086       .  S
C2665      C3274   1.439       .  S
C2665      C2666   1.199       .  T
C2667      C2668   1.200       .  T
C2669      C2670   1.204       .  T
C2671      C2672   1.201       .  T
C2673      C2674   1.197       .  T
C2674      C3240   1.435       .  S
C2675      C2676   1.197       .  T
C2677      C2678   1.201       .  T
C2679      C2680   1.206       .  T
C2680      C2701   1.449       .  S
N2681      C2686   1.348       .  A
N2681      H2713   1.038       .  S
N2682      C2689   1.349   1_556  A
N2682      C2690   1.349       .  A
N2683      C2688   1.348       .  A
N2683      H2714   1.037       .  S
N2684      C2691   1.348       .  A
N2684      C2692   1.349       .  A
C2685      C2693   1.387       .  A
C2685      C2701   1.407       .  A
C2686      C2702   1.405   1_545  A
C2686      C2694   1.388       .  A
C2687      C2695   1.388       .  A
C2687      C3776   1.404       .  A
C2688      C2696   1.387       .  A
C2689      C2697   1.386       .  A
C2690      C2704   1.410       .  A
C2690      C2698   1.387   1_556  A
C2691      C2699   1.386       .  A
C2691      C3774   1.405       .  A
C2692      C2700   1.387       .  A
C2692      C2703   1.408       .  A
C2693      H2705   1.082       .  S
C2694      H2706   1.083       .  S
C2695      H2707   1.083       .  S
C2696      H2708   1.083       .  S
C2697      C2698   1.377       .  A
C2697      H2709   1.082       .  S
C2698      H2710   1.082       .  S
C2699      C2700   1.373       .  A
C2699      H2711   1.082       .  S
C2700      H2712   1.082       .  S
C2702      C3763   1.410       .  A
C2702      C3211   1.435   1_565  S
C2704      C3759   1.404   1_545  A
C2704      C4282   1.438   1_545  S
N2715      C2720   1.350       .  A
N2715      C2719   1.348       .  A
N2715      H2747   1.040       .  S
N2716      C2723   1.349       .  A
N2716      C2724   1.350       .  A
N2717      C2722   1.352       .  A
N2717      C2721   1.353       .  A
N2717      H2748   1.037       .  S
N2718      C2725   1.351       .  A
N2718      C2726   1.350       .  A
C2719      C2727   1.389       .  A
C2719      C2735   1.404       .  A
C2720      C2736   1.404       .  A
C2720      C2728   1.388       .  A
C2721      C2729   1.387       .  A
C2721      C3810   1.413       .  A
C2722      C2730   1.388       .  A
C2723      C2731   1.387       .  A
C2724      C2738   1.412   1_545  A
C2724      C2732   1.387       .  A
C2725      C2733   1.387       .  A
C2725      C3808   1.413       .  A
C2726      C2734   1.387       .  A
C2726      C2737   1.411   1_655  A
C2727      C2728   1.370       .  A
C2727      H2739   1.083       .  S
C2728      H2740   1.083       .  S
C2729      C2730   1.376       .  A
C2729      H2741   1.082       .  S
C2730      H2742   1.082       .  S
C2731      C2732   1.377       .  A
C2731      H2743   1.082       .  S
C2732      H2744   1.082       .  S
C2733      C2734   1.376       .  A
C2733      H2745   1.082       .  S
C2734      H2746   1.083       .  S
C2735      C3207   1.431       .  S
C2736      C3797   1.411   1_545  A
C2736      C3204   1.445       .  S
C2738      C3793   1.408       .  A
C2738      C4273   1.445       .  S
Zr2749     O2750   2.440       .  S
Zr2749     O2755   2.435       .  S
Zr2749     O2760   2.421       .  S
O2750      H2806   0.990       .  S
O2750      H2814   0.990       .  S
O2751      C2771   1.290       .  A
O2752      C2773   1.283       .  A
O2753     Zr2763   2.448       .  S
O2753      C2772   1.287       .  A
O2754     Zr2762   2.416       .  S
O2755      C2772   1.284       .  A
O2756     Zr2764   2.420       .  S
O2756      C2771   1.283       .  A
O2757     Zr2764   2.372       .  S
O2758     Zr2764   2.378       .  S
O2758      H2793   0.965       .  S
O2759     Zr2779   2.400       .  S
O2759      H2796   0.967       .  S
O2760     Zr2763   2.386       .  S
Zr2761     O2786   2.442       .  S
Zr2761     O2776   2.447       .  S
Zr2761     O2768   2.410       .  S
Zr2762     O2781   2.442       .  S
Zr2762     O2774   2.435       .  S
Zr2762     O2775   2.444       .  S
Zr2762     O2768   2.390       .  S
Zr2763     O2765   2.435       .  S
Zr2763     O2787   2.439       .  S
Zr2763     O2789   2.410       .  S
Zr2764     O2790   2.436       .  S
Zr2764     O2791   2.434       .  S
Zr2764     O2766   2.435       .  S
Zr2764     O2767   2.391       .  S
O2765      H2802   0.990       .  S
O2766      H2797   0.990       .  S
O2766      H2811   0.990       .  S
O2768      H2794   0.966       .  S
O2769     Zr2779   2.367       .  S
O2770     Zr2779   2.369       .  S
O2770      H2795   0.965       .  S
C2771      C3197   1.490       .  S
C2772      C3190   1.484       .  S
C2773      C3215   1.425       .  S
O2774      H2810   0.990       .  S
O2775      C2777   1.285       .  A
O2776      C2777   1.285       .  A
C2777      C3193   1.486       .  S
O2778     Zr2779   2.438       .  S
O2778      H2807   0.990       .  S
Zr2779     O2782   2.436       .  S
Zr2779     O2783   2.435       .  S
Zr2779     O2784   2.452       .  S
O2780      C2785   1.284       .  A
O2781      H2798   0.990       .  S
O2782      H2799   0.990       .  S
O2783      H2803   0.990       .  S
O2783      H2812   0.989       .  S
O2784      C2785   1.289       .  A
C2785      C3185   1.493       .  S
O2786      H2805   0.990       .  S
O2786      H2809   0.991       .  S
O2787      H2801   0.990       .  S
O2788      C2792   1.283       .  A
O2790      H2800   0.990       .  S
C2792      C3214   1.422       .  S
Zr2815     O2816   2.440       .  S
Zr2815     O2817   2.486       .  S
Zr2815     O2818   2.442       .  S
Zr2815     O2821   2.427       .  S
Zr2815     O2823   2.383       .  S
Zr2815     O2824   2.377       .  S
Zr2815     O2826   2.421       .  S
O2816      H2872   0.990       .  S
O2816      H2880   0.990       .  S
O2817      C2837   1.293       .  A
O2818      C2839   1.285       .  A
O2819     Zr2829   2.454       .  S
O2819      C2838   1.287       .  A
O2820     Zr2828   2.417       .  S
O2821      C2838   1.283       .  A
O2822     Zr2830   2.418       .  S
O2822      C2837   1.281       .  A
O2823     Zr2830   2.376       .  S
O2824     Zr2829   2.371       .  S
O2824     Zr2830   2.377       .  S
O2824      H2859   0.965       .  S
O2825     Zr2828   2.396       .  S
O2825     Zr2845   2.403       .  S
O2825      H2862   0.966       .  S
O2826     Zr2829   2.382       .  S
Zr2827     O2852   2.440       .  S
Zr2827     O2846   2.423       .  S
Zr2827     O2854   2.435       .  S
Zr2827     O2842   2.450       .  S
Zr2827     O2834   2.404       .  S
Zr2827     O2835   2.377       .  S
Zr2827     O2836   2.386       .  S
Zr2828     O2847   2.438       .  S
Zr2828     O2840   2.437       .  S
Zr2828     O2841   2.425       .  S
Zr2828     O2834   2.393       .  S
Zr2828     O2835   2.387       .  S
Zr2829     O2831   2.436       .  S
Zr2829     O2853   2.439       .  S
Zr2829     O2855   2.405       .  S
Zr2829     O2833   2.397       .  S
Zr2830     O2856   2.437       .  S
Zr2830     O2857   2.434       .  S
Zr2830     O2832   2.429       .  S
Zr2830     O2833   2.384       .  S
O2831      H2868   0.990       .  S
O2832      H2863   0.991       .  S
O2832      H2877   0.990       .  S
O2834      H2860   0.966       .  S
O2835     Zr2845   2.372       .  S
O2836     Zr2845   2.370       .  S
O2836      H2861   0.965       .  S
C2837      C3177   1.486       .  S
C2838      C3170   1.484       .  S
C2839      C3206   1.433       .  S
O2840      H2876   0.990       .  S
O2841      C2843   1.283       .  A
O2842      C2843   1.288       .  A
C2843      C3181   1.479       .  S
O2844     Zr2845   2.440       .  S
O2844      H2873   0.990       .  S
Zr2845     O2848   2.436       .  S
Zr2845     O2849   2.438       .  S
Zr2845     O2850   2.452       .  S
O2846      C2851   1.281       .  A
O2847      H2864   0.990       .  S
O2847      H2879   0.990       .  S
O2848      H2865   0.990       .  S
O2849      H2869   0.989       .  S
O2849      H2878   0.990       .  S
O2850      C2851   1.289       .  A
C2851      C3174   1.485       .  S
O2852      H2871   0.991       .  S
O2852      H2875   0.990       .  S
O2853      H2867   0.990       .  S
O2853      H2874   0.990       .  S
O2854      C2858   1.283       .  A
O2856      H2866   0.990       .  S
C2858      C3208   1.414       .  S
Zr2881     O2882   2.439       .  S
Zr2881     O2887   2.447       .  S
Zr2881     O3963   2.410       .  S
Zr2881     O2892   2.407       .  S
O2882      H2938   0.991       .  S
O2882      H2946   0.990       .  S
O2883      C2903   1.285       .  A
O2884      C2905   1.283       .  A
O2885     Zr2895   2.432       .  S
O2885      C2904   1.283       .  A
O2886     Zr2894   2.406       .  S
O2886      C3977   1.278   1_545  A
O2887      C2904   1.288       .  A
O2888     Zr2896   2.445       .  S
O2888      C2903   1.287       .  A
O2889     Zr3966   2.395       .  S
O2889     Zr2896   2.370       .  S
O2890     Zr2896   2.367       .  S
O2890      H2925   0.965       .  S
O2891     Zr3953   2.419   1_545  S
O2891     Zr2911   2.398       .  S
O2891      H2928   0.966       .  S
O2892     Zr2895   2.386       .  S
O2892     Zr3983   2.408       .  S
Zr2893     O2918   2.443       .  S
Zr2893     O2908   2.441       .  S
Zr2893     O3971   2.407   1_545  S
Zr2893     O2900   2.406       .  S
Zr2894     O2913   2.438       .  S
Zr2894     O2906   2.435       .  S
Zr2894     O2907   2.439       .  S
Zr2894     O3961   2.396   1_545  S
Zr2894     O2900   2.386       .  S
Zr2895     O2897   2.434       .  S
Zr2895     O2919   2.440       .  S
Zr2895     O2921   2.405       .  S
Zr2895     O3974   2.390       .  S
Zr2896     O2922   2.437       .  S
Zr2896     O2923   2.435       .  S
Zr2896     O2898   2.429       .  S
Zr2896     O2899   2.395       .  S
Zr2896     O3972   2.414       .  S
O2897      H2934   0.990       .  S
O2898      H2929   0.990       .  S
O2898      H2943   0.989       .  S
O2899     Zr3965   2.411       .  S
O2900     Zr3968   2.404   1_545  S
O2900      H2926   0.966       .  S
O2901     Zr2911   2.369       .  S
O2902     Zr3967   2.398   1_545  S
O2902     Zr2911   2.371       .  S
O2902      H2927   0.966       .  S
C2903      C3158   1.489       .  S
C2904      C3165   1.480       .  S
C2905      C3209   1.418       .  S
C2905      O3958   1.277       .  A
O2906      H2942   0.990       .  S
O2907      C2909   1.285       .  A
O2908      C2909   1.286       .  A
C2909      C3153   1.482       .  S
O2910     Zr2911   2.432       .  S
O2910      H2939   0.990   1_545  S
Zr2911     O2914   2.435       .  S
Zr2911     O2915   2.437       .  S
Zr2911     O2916   2.443       .  S
Zr2911     O3964   2.408   1_545  S
O2912      C2917   1.285       .  A
O2913      H2930   0.990       .  S
O2914      H2931   0.990       .  S
O2915      H2935   0.989       .  S
O2915      H2944   0.990   1_545  S
O2916      C2917   1.287       .  A
C2917      C3162   1.490       .  S
O2918      H2937   0.990       .  S
O2918      H2941   0.990       .  S
O2919      H2933   0.990       .  S
O2920      C2924   1.283       .  A
O2921      C3996   1.278       .  A
O2922      H2932   0.990       .  S
O2923      H4008   0.990       .  S
C2924      C3212   1.418       .  S
C2924      O3993   1.278   1_545  A
H2936      O3995   0.990       .  S
Zr2947     O2948   2.440       .  S
Zr2947     O2949   2.452       .  S
Zr2947     O2950   2.447       .  S
Zr2947     O2953   2.451       .  S
Zr2947     O2955   2.392       .  S
Zr2947     O2956   2.384       .  S
Zr2947     O4029   2.416   1_545  S
Zr2947     O2958   2.415       .  S
O2948      H3004   0.991       .  S
O2948      H3012   0.990       .  S
O2949      C2969   1.287       .  A
O2950      C2971   1.285       .  A
O2951     Zr2961   2.451       .  S
O2951      C2970   1.286       .  A
O2952     Zr2960   2.414       .  S
O2952      C4043   1.278       .  A
O2953      C2970   1.287       .  A
O2954     Zr2962   2.426       .  S
O2954      C2969   1.283       .  A
O2955     Zr4032   2.399   1_545  S
O2955     Zr2962   2.380       .  S
O2956     Zr2961   2.386       .  S
O2956     Zr2962   2.373       .  S
O2956      H2991   0.964       .  S
O2957     Zr4019   2.415       .  S
O2957     Zr2960   2.406       .  S
O2957     Zr2977   2.395       .  S
O2957      H2994   0.965       .  S
O2958     Zr2961   2.381       .  S
O2958     Zr4049   2.407   1_545  S
Zr2959     O2984   2.442       .  S
Zr2959     O2978   2.440       .  S
Zr2959     O2986   2.423       .  S
Zr2959     O2974   2.449       .  S
Zr2959     O4037   2.407       .  S
Zr2959     O2966   2.406       .  S
Zr2959     O2967   2.373       .  S
Zr2959     O2968   2.391       .  S
Zr2960     O2979   2.439       .  S
Zr2960     O2972   2.436       .  S
Zr2960     O2973   2.437       .  S
Zr2960     O4027   2.403       .  S
Zr2960     O2966   2.392       .  S
Zr2960     O2967   2.381       .  S
Zr2961     O2963   2.436       .  S
Zr2961     O2985   2.439       .  S
Zr2961     O2987   2.419       .  S
Zr2961     O2965   2.393       .  S
Zr2961     O4040   2.396   1_545  S
Zr2962     O2988   2.435       .  S
Zr2962     O2989   2.435       .  S
Zr2962     O2964   2.429       .  S
Zr2962     O2965   2.382       .  S
Zr2962     O4038   2.408   1_545  S
O2963      H3000   0.990       .  S
O2964      H2995   0.989       .  S
O2964      H3009   0.990       .  S
O2965     Zr4031   2.403   1_545  S
O2966     Zr4034   2.402       .  S
O2966      H2992   0.966       .  S
O2967     Zr2977   2.368       .  S
O2968     Zr4033   2.399       .  S
O2968     Zr2977   2.370       .  S
O2968      H2993   0.966       .  S
C2969      C3137   1.482       .  S
C2970      C3145   1.490       .  S
C2971      C3203   1.428       .  S
C2971      O4024   1.277   1_545  A
O2972      H3008   0.990       .  S
O2973      C2975   1.286       .  A
O2974      C2975   1.286       .  A
C2975      C3142   1.483       .  S
O2976     Zr2977   2.438       .  S
O2976      H3005   0.991       .  S
Zr2977     O2980   2.438       .  S
Zr2977     O2981   2.429       .  S
Zr2977     O2982   2.435       .  S
Zr2977     O4030   2.404       .  S
O2978      C2983   1.284       .  A
O2979      H2996   0.990       .  S
O2979      H3011   0.990       .  S
O2980      H2997   0.990       .  S
O2981      H3001   0.990       .  S
O2981      H3010   0.989       .  S
O2982      C2983   1.286       .  A
C2983      C3149   1.489       .  S
O2984      H3003   0.991       .  S
O2984      H3007   0.990       .  S
O2985      H2999   0.990       .  S
O2985      H3006   0.990       .  S
O2986      C2990   1.282       .  A
O2987      C4062   1.280   1_545  A
O2988      H2998   0.990       .  S
O2989      H4074   0.990   1_545  S
C2990      C3202   1.435       .  S
C2990      O4059   1.286       .  A
H3002      O4061   0.990       .  S
O3013     Zr3025   2.445       .  S
O3013      C3015   1.288       .  A
O3014     Zr3051   2.451       .  S
O3014      C3015   1.290       .  A
C3015      C3198   1.481       .  S
O3016     Zr3028   2.440       .  S
O3016      C3018   1.287       .  A
O3017     Zr3052   2.458       .  S
O3017      C3018   1.292       .  A
C3018      C3141   1.489       .  S
O3019     Zr3028   2.430       .  S
O3019      C3021   1.283       .  A
O3020     Zr3051   2.458       .  S
O3020      C3021   1.292       .  A
C3021      C3173   1.477       .  S
O3022     Zr3025   2.456       .  S
O3022      C3024   1.292       .  A
O3023     Zr3052   2.433       .  S
O3023      C3024   1.287       .  A
C3024      C3166   1.483       .  S
Zr3025     O3026   2.434       .  S
Zr3025     O3027   2.430       .  S
Zr3025     O3031   2.362       .  S
Zr3025     O3032   2.371       .  S
Zr3025     O3055   2.372       .  S
Zr3025     O3057   2.381       .  S
O3026      H3069   0.990       .  S
O3027      H3068   0.990       .  S
O3027      H3072   0.990       .  S
Zr3028     O3029   2.440       .  S
Zr3028     O3030   2.435       .  S
Zr3028     O3032   2.377       .  S
Zr3028     O3031   2.366       .  S
Zr3028     O3056   2.369       .  S
Zr3028     O3058   2.368       .  S
O3029      H3070   0.990       .  S
O3029      H3073   0.990       .  S
O3030      H3063   0.990       .  S
O3031     Zr3051   2.381       .  S
O3032     Zr3052   2.394       .  S
O3032      H3059   0.965       .  S
O3033     Zr3045   2.458       .  S
O3033      C3035   1.290       .  A
O3034     Zr3052   2.446       .  S
O3034      C3035   1.290       .  A
C3035      C3194   1.489       .  S
O3036     Zr3048   2.452       .  S
O3036      C3038   1.292       .  A
O3037     Zr3051   2.443       .  S
O3037      C3038   1.289       .  A
C3038      C3138   1.486       .  S
O3039     Zr3048   2.454       .  S
O3039      C3041   1.291       .  A
O3040     Zr3052   2.441       .  S
O3040      C3041   1.289       .  A
C3041      C3169   1.484       .  S
O3042     Zr3045   2.444       .  S
O3042      C3044   1.288       .  A
O3043     Zr3051   2.453       .  S
O3043      C3044   1.291       .  A
C3044      C3161   1.480       .  S
Zr3045     O3046   2.439       .  S
Zr3045     O3047   2.429       .  S
Zr3045     O3053   2.365       .  S
Zr3045     O3054   2.366       .  S
Zr3045     O3057   2.378       .  S
Zr3045     O3055   2.371       .  S
O3046      H3066   0.991       .  S
O3046      H3071   0.990       .  S
O3047      H3067   0.990       .  S
Zr3048     O3049   2.434       .  S
Zr3048     O3050   2.431       .  S
Zr3048     O3054   2.362       .  S
Zr3048     O3053   2.369       .  S
Zr3048     O3058   2.378       .  S
Zr3048     O3056   2.385       .  S
O3049      H3065   0.990       .  S
O3050      H3064   0.990       .  S
O3050      H3074   0.990       .  S
Zr3051     O3054   2.389       .  S
Zr3051     O3056   2.403       .  S
Zr3051     O3057   2.404       .  S
Zr3052     O3053   2.394       .  S
Zr3052     O3055   2.393       .  S
Zr3052     O3058   2.393       .  S
O3053      H3061   0.965       .  S
O3056      H3060   0.967       .  S
O3057      H3062   0.968       .  S
O3075     Zr3087   2.439       .  S
O3075      C3077   1.288       .  A
O3076     Zr3113   2.438       .  S
O3076      C3077   1.288       .  A
C3077      C3182   1.483       .  S
O3078     Zr3090   2.440       .  S
O3078      C3080   1.285       .  A
O3079     Zr3114   2.468       .  S
O3079      C3080   1.293       .  A
C3080      C3157   1.485       .  S
O3081     Zr3090   2.440       .  S
O3081      C3083   1.287       .  A
O3082     Zr3113   2.450       .  S
O3082      C3083   1.290       .  A
C3083      C3189   1.487       .  S
O3084     Zr3087   2.433       .  S
O3084      C3086   1.285       .  A
O3085     Zr3114   2.461       .  S
O3085      C3086   1.292       .  A
C3086      C3150   1.474       .  S
Zr3087     O3088   2.434       .  S
Zr3087     O3089   2.434       .  S
Zr3087     O3093   2.369       .  S
Zr3087     O3094   2.367       .  S
Zr3087     O3117   2.370       .  S
Zr3087     O3119   2.369       .  S
O3088      H3131   0.990       .  S
O3089      H3130   0.990       .  S
O3089      H3134   0.990       .  S
Zr3090     O3091   2.440       .  S
Zr3090     O3092   2.431       .  S
Zr3090     O3094   2.365       .  S
Zr3090     O3093   2.371       .  S
Zr3090     O3118   2.366       .  S
Zr3090     O3120   2.381       .  S
O3091      H3132   0.991       .  S
O3091      H3135   0.990       .  S
O3092      H3125   0.990       .  S
O3093     Zr3113   2.383       .  S
O3094     Zr3114   2.398       .  S
O3094      H3121   0.964       .  S
O3095     Zr3107   2.463       .  S
O3095      C3097   1.293       .  A
O3096     Zr3114   2.445       .  S
O3096      C3097   1.290       .  A
C3097      C3178   1.491       .  S
O3098     Zr3110   2.448       .  S
O3098      C3100   1.290       .  A
O3099     Zr3113   2.440       .  S
O3099      C3100   1.289       .  A
C3100      C3154   1.487       .  S
O3101     Zr3110   2.435       .  S
O3101      C3103   1.286       .  A
O3102     Zr3114   2.475       .  S
O3102      C3103   1.296       .  A
C3103      C3186   1.482       .  S
O3104     Zr3107   2.459       .  S
O3104      C3106   1.292       .  A
O3105     Zr3113   2.446       .  S
O3105      C3106   1.290       .  A
C3106      C3146   1.492       .  S
Zr3107     O3108   2.436       .  S
Zr3107     O3109   2.433       .  S
Zr3107     O3115   2.363       .  S
Zr3107     O3116   2.372       .  S
Zr3107     O3119   2.373       .  S
Zr3107     O3117   2.381       .  S
O3108      H3128   0.990       .  S
O3108      H3133   0.990       .  S
O3109      H3129   0.990       .  S
Zr3110     O3111   2.435       .  S
Zr3110     O3112   2.433       .  S
Zr3110     O3116   2.368       .  S
Zr3110     O3115   2.373       .  S
Zr3110     O3120   2.386       .  S
Zr3110     O3118   2.375       .  S
O3111      H3127   0.990       .  S
O3112      H3126   0.990       .  S
O3112      H3136   0.990       .  S
Zr3113     O3116   2.385       .  S
Zr3113     O3118   2.395       .  S
Zr3113     O3119   2.397       .  S
Zr3114     O3115   2.402       .  S
Zr3114     O3117   2.404       .  S
Zr3114     O3120   2.405       .  S
O3115      H3123   0.965       .  S
O3118      H3122   0.968       .  S
O3119      H3124   0.967       .  S
C3137      C3138   1.347       .  D
C3137      H3139   1.088       .  S
C3138      H3140   1.086       .  S
C3141      C3142   1.351       .  D
C3141      H3143   1.086       .  S
C3142      H3144   1.087       .  S
C3145      C3146   1.350       .  D
C3145      H3147   1.087       .  S
C3146      H3148   1.086       .  S
C3149      C3150   1.345       .  D
C3149      H3151   1.086       .  S
C3150      H3152   1.087       .  S
C3153      C3154   1.348       .  D
C3153      H3155   1.087       .  S
C3154      H3156   1.086       .  S
C3157      C3158   1.345       .  D
C3157      H3159   1.089       .  S
C3158      H3160   1.086       .  S
C3161      C3162   1.347       .  D
C3161      H3163   1.087       .  S
C3162      H3164   1.086       .  S
C3165      C3166   1.345       .  D
C3165      H3167   1.088       .  S
C3166      H3168   1.086       .  S
C3169      C3170   1.350       .  D
C3169      H3171   1.086       .  S
C3170      H3172   1.087       .  S
C3173      C3174   1.340       .  D
C3173      H3175   1.087       .  S
C3174      H3176   1.087       .  S
C3177      C3178   1.346       .  D
C3177      H3179   1.088       .  S
C3178      H3180   1.086       .  S
C3181      C3182   1.347       .  D
C3181      H3183   1.087       .  S
C3182      H3184   1.086       .  S
C3185      C3186   1.344       .  D
C3185      H3187   1.086       .  S
C3186      H3188   1.087       .  S
C3189      C3190   1.352       .  D
C3189      H3191   1.086       .  S
C3190      H3192   1.087       .  S
C3193      C3194   1.351       .  D
C3193      H3195   1.087       .  S
C3194      H3196   1.086       .  S
C3197      C3198   1.350       .  D
C3197      H3199   1.086       .  S
C3198      H3200   1.088       .  S
C3201      C3810   1.451       .  S
C3201      C3202   1.207       .  T
C3203      C3204   1.203       .  T
C3205      C3206   1.206       .  T
C3207      C3208   1.194       .  T
C3209      C3210   1.197       .  T
C3210      C3776   1.435       .  S
C3211      C3212   1.197       .  T
C3213      C3214   1.199       .  T
C3215      C3216   1.201   1_655  T
N3217      C3222   1.348       .  A
N3217      C3757   1.350       .  A
N3217      H3249   1.040       .  S
N3218      C3225   1.349       .  A
N3218      C3226   1.348       .  A
N3219      C3224   1.349       .  A
N3219      C3759   1.348       .  A
N3219      H3250   1.039   1_556  S
N3220      C3227   1.346       .  A
N3220      C3228   1.350       .  A
C3221      N3753   1.350       .  A
C3221      C3229   1.387       .  A
C3221      C3237   1.404       .  A
C3222      C3238   1.404       .  A
C3222      C3230   1.388       .  A
C3223      N3755   1.348       .  A
C3223      C3231   1.390       .  A
C3224      C3232   1.387       .  A
C3225      C3233   1.385       .  A
C3226      C3240   1.409       .  A
C3226      C3234   1.388       .  A
C3227      C3235   1.388       .  A
C3228      C3236   1.386       .  A
C3228      C3239   1.407   1_554  A
C3229      C3766   1.370       .  A
C3229      H3241   1.082       .  S
C3230      C3765   1.372       .  A
C3230      H3242   1.082       .  S
C3231      C3768   1.371       .  A
C3231      H3243   1.082       .  S
C3232      C3767   1.374       .  A
C3232      H3244   1.082       .  S
C3233      C3234   1.374       .  A
C3233      H3245   1.082       .  S
C3234      H3246   1.083       .  S
C3235      C3236   1.374       .  A
C3235      H3247   1.083       .  S
C3236      H3248   1.082       .  S
C3237      C4288   1.442       .  S
C3238      C3747   1.433       .  S
N3251      C3256   1.351       .  A
N3251      C3255   1.352       .  A
N3251      H3283   1.038       .  S
N3252      C3259   1.348       .  A
N3252      C3260   1.348       .  A
N3253      C3258   1.351       .  A
N3253      C3257   1.350       .  A
N3253      H3284   1.035       .  S
N3254      C3261   1.350       .  A
N3254      C3262   1.348       .  A
C3255      C3263   1.387       .  A
C3255      C3271   1.408       .  A
C3256      C3272   1.410       .  A
C3256      C3264   1.389       .  A
C3257      C3265   1.388       .  A
C3258      C3266   1.388       .  A
C3259      C3267   1.387       .  A
C3260      C3274   1.406       .  A
C3260      C3268   1.387       .  A
C3261      C3269   1.386       .  A
C3262      C3270   1.388       .  A
C3262      C3273   1.409   1_655  A
C3263      C3264   1.370       .  A
C3263      H3275   1.082       .  S
C3264      H3276   1.082       .  S
C3265      C3266   1.375       .  A
C3265      H3277   1.083       .  S
C3266      H3278   1.083       .  S
C3267      C3268   1.373       .  A
C3267      H3279   1.083       .  S
C3268      H3280   1.082       .  S
C3269      C3270   1.374       .  A
C3269      H3281   1.082       .  S
C3270      H3282   1.083       .  S
C3271      C3743   1.440       .  S
C3272      C3740   1.450       .  S
Zr3285     O3286   2.441       .  S
Zr3285     O3823   2.472       .  S
Zr3285     O3824   2.443       .  S
Zr3285     O3291   2.450       .  S
Zr3285     O3829   2.390       .  S
Zr3285     O3830   2.380       .  S
Zr3285     O3296   2.419       .  S
O3286      H3342   0.990       .  S
O3286      H3350   0.990       .  S
O3287     Zr3821   2.445   1_554  S
O3287      C3307   1.285       .  A
O3288     Zr3821   2.437   1_554  S
O3288      C3309   1.283       .  A
O3289     Zr3299   2.436       .  S
O3289      C3308   1.283       .  A
O3290     Zr3298   2.392       .  S
O3291      C3308   1.286       .  A
O3292     Zr3300   2.446       .  S
O3292      C3307   1.287       .  A
O3293     Zr3821   2.386   1_554  S
O3293     Zr3300   2.375       .  S
O3294     Zr3821   2.382   1_554  S
O3294     Zr3835   2.385   1_554  S
O3294     Zr3300   2.373       .  S
O3294      H3329   0.966       .  S
O3295     Zr3834   2.408       .  S
O3295     Zr3315   2.394       .  S
O3295      H3332   0.967       .  S
O3296     Zr3299   2.377       .  S
Zr3297     O3322   2.443       .  S
Zr3297     O3852   2.448   1_554  S
Zr3297     O3860   2.428   1_554  S
Zr3297     O3312   2.457       .  S
Zr3297     O3304   2.405       .  S
Zr3297     O3841   2.365   1_554  S
Zr3297     O3842   2.395   1_554  S
Zr3298     O3317   2.439       .  S
Zr3298     O3310   2.438       .  S
Zr3298     O3311   2.439       .  S
Zr3298     O3831   2.409   1_554  S
Zr3298     O3304   2.385       .  S
Zr3298     O3841   2.370   1_554  S
Zr3299     O3301   2.434       .  S
Zr3299     O3323   2.439       .  S
Zr3299     O3325   2.416       .  S
Zr3299     O3830   2.390       .  S
Zr3299     O3839   2.393       .  S
Zr3300     O3326   2.436       .  S
Zr3300     O3327   2.435       .  S
Zr3300     O3302   2.432       .  S
Zr3300     O3303   2.391       .  S
O3301      H3338   0.990       .  S
O3302      H3333   0.990       .  S
O3302      H3347   0.990       .  S
O3303     Zr3835   2.397   1_554  S
O3304      H3330   0.966       .  S
O3305     Zr3833   2.372       .  S
O3305     Zr3834   2.389       .  S
O3305     Zr3315   2.374       .  S
O3306     Zr3833   2.385       .  S
O3306     Zr3315   2.375       .  S
O3306      H3331   0.966       .  S
C3307      C3733   1.490       .  S
C3308      C3726   1.482       .  S
C3309      C3751   1.424       .  S
O3310      H3346   0.990       .  S
O3311      C3313   1.286       .  A
O3312      C3313   1.288       .  A
C3313      C3729   1.490       .  S
O3314     Zr3315   2.436       .  S
O3314      H3343   0.990       .  S
Zr3315     O3318   2.436       .  S
Zr3315     O3319   2.431       .  S
Zr3315     O3320   2.429       .  S
O3316     Zr3833   2.465       .  S
O3316      C3321   1.289       .  A
O3317      H3334   0.990       .  S
O3317      H3885   0.990       .  S
O3318      H3335   0.990       .  S
O3319      H3339   0.989       .  S
O3319      H3348   0.990       .  S
O3320      C3321   1.282       .  A
C3321      C3721   1.491       .  S
O3322      H3341   0.990       .  S
O3322      H3345   0.990       .  S
O3323      H3337   0.990       .  S
O3323      H3880   0.990       .  S
O3324     Zr3833   2.432       .  S
O3324      C3328   1.283       .  A
O3326      H3336   0.990       .  S
C3328      C3750   1.427       .  S
H3344      O3859   0.990       .  S
H3349      O3853   0.990       .  S
Zr3351     O3352   2.440       .  S
Zr3351     O3353   2.466       .  S
Zr3351     O3354   2.429       .  S
Zr3351     O3357   2.436       .  S
Zr3351     O3359   2.387       .  S
Zr3351     O3360   2.376       .  S
Zr3351     O3362   2.412       .  S
O3352      H3408   0.990       .  S
O3352      H3416   0.991       .  S
O3353      C3373   1.290       .  A
O3354      C3375   1.282       .  A
O3355     Zr3365   2.446       .  S
O3355      C3374   1.286       .  A
O3356     Zr3364   2.422       .  S
O3357      C3374   1.285       .  A
O3358     Zr3366   2.413       .  S
O3358      C3373   1.280       .  A
O3359     Zr3366   2.379       .  S
O3360     Zr3365   2.377       .  S
O3360     Zr3366   2.372       .  S
O3360      H3395   0.965       .  S
O3361     Zr3364   2.403       .  S
O3361     Zr3381   2.400       .  S
O3361      H3398   0.967       .  S
O3362     Zr3365   2.384       .  S
Zr3363     O3388   2.445       .  S
Zr3363     O3382   2.446       .  S
Zr3363     O3390   2.421       .  S
Zr3363     O3378   2.448       .  S
Zr3363     O3370   2.403       .  S
Zr3363     O3371   2.376       .  S
Zr3363     O3372   2.391       .  S
Zr3364     O3383   2.438       .  S
Zr3364     O3376   2.434       .  S
Zr3364     O3377   2.449       .  S
Zr3364     O3370   2.391       .  S
Zr3364     O3371   2.380       .  S
Zr3365     O3367   2.434       .  S
Zr3365     O3389   2.438       .  S
Zr3365     O3391   2.412       .  S
Zr3365     O3369   2.396       .  S
Zr3366     O3392   2.435       .  S
Zr3366     O3393   2.436       .  S
Zr3366     O3368   2.423       .  S
Zr3366     O3369   2.382       .  S
O3367      H3404   0.990       .  S
O3368      H3399   0.990       .  S
O3368      H3413   0.990       .  S
O3370      H3396   0.966       .  S
O3371     Zr3381   2.369       .  S
O3372     Zr3381   2.374       .  S
O3372      H3397   0.966       .  S
C3373      C3713   1.480       .  S
C3374      C3706   1.484       .  S
C3375      C3742   1.427       .  S
O3376      H3412   0.990       .  S
O3377      C3379   1.288       .  A
O3378      C3379   1.287       .  A
C3379      C3717   1.489       .  S
O3380     Zr3381   2.439       .  S
O3380      H3409   0.990       .  S
Zr3381     O3384   2.436       .  S
Zr3381     O3385   2.435       .  S
Zr3381     O3386   2.447       .  S
O3382      C3387   1.286       .  A
O3383      H3400   0.990       .  S
O3383      H3415   0.990       .  S
O3384      H3401   0.990       .  S
O3385      H3405   0.990       .  S
O3385      H3414   0.989   1_655  S
O3386      C3387   1.288       .  A
C3387      C3710   1.493       .  S
O3388      H3407   0.990       .  S
O3388      H3411   0.990       .  S
O3389      H3403   0.990       .  S
O3389      H3410   0.990       .  S
O3390      C3394   1.282       .  A
O3392      H3402   0.990       .  S
C3394      C3744   1.422       .  S
Zr3417     O3418   2.439       .  S
Zr3417     O3955   2.447   1_554  S
Zr3417     O3956   2.433   1_554  S
Zr3417     O3423   2.452       .  S
Zr3417     O3961   2.387   1_554  S
Zr3417     O3962   2.378   1_554  S
Zr3417     O3428   2.409       .  S
O3418      H3474   0.990       .  S
O3418      H3482   0.990       .  S
O3419     Zr3953   2.463       .  S
O3419      C3439   1.289       .  A
O3420     Zr3953   2.429       .  S
O3420      C3441   1.283       .  A
O3421     Zr3431   2.444       .  S
O3421      C3440   1.286       .  A
O3422     Zr3430   2.403       .  S
O3423      C3440   1.288       .  A
O3424     Zr3432   2.437       .  S
O3424      C3439   1.286       .  A
O3425     Zr3953   2.386       .  S
O3425     Zr3432   2.374       .  S
O3426     Zr3953   2.377       .  S
O3426     Zr3967   2.372       .  S
O3426     Zr3432   2.374       .  S
O3426      H3461   0.964       .  S
O3427     Zr3966   2.402   1_554  S
O3427     Zr3447   2.403       .  S
O3427      H3464   0.967       .  S
O3428     Zr3431   2.386       .  S
Zr3429     O3454   2.442       .  S
Zr3429     O3984   2.434       .  S
Zr3429     O3992   2.425       .  S
Zr3429     O3444   2.457       .  S
Zr3429     O3436   2.403       .  S
Zr3429     O3973   2.369       .  S
Zr3429     O3974   2.389       .  S
Zr3430     O3449   2.439       .  S
Zr3430     O3442   2.437       .  S
Zr3430     O3443   2.422       .  S
Zr3430     O3963   2.398       .  S
Zr3430     O3436   2.389       .  S
Zr3430     O3973   2.378       .  S
Zr3431     O3433   2.434       .  S
Zr3431     O3455   2.438       .  S
Zr3431     O3457   2.412       .  S
Zr3431     O3962   2.377   1_554  S
Zr3431     O3971   2.398   1_554  S
Zr3432     O3458   2.434       .  S
Zr3432     O3459   2.436       .  S
Zr3432     O3434   2.436       .  S
Zr3432     O3435   2.398       .  S
O3433      H3470   0.990       .  S
O3434      H3465   0.990       .  S
O3434      H3479   0.990   1_565  S
O3435     Zr3967   2.402       .  S
O3436      H3462   0.965       .  S
O3437     Zr3965   2.366   1_554  S
O3437     Zr3966   2.378   1_554  S
O3437     Zr3447   2.366       .  S
O3438     Zr3965   2.385   1_554  S
O3438     Zr3447   2.370       .  S
O3438      H3463   0.965       .  S
C3439      C3694   1.490       .  S
C3440      C3701   1.487       .  S
C3441      C3745   1.418       .  S
O3442      H3478   0.990       .  S
O3443      C3445   1.282       .  A
O3444      C3445   1.289       .  A
C3445      C3689   1.481       .  S
O3446     Zr3447   2.438       .  S
O3446      H3475   0.990       .  S
Zr3447     O3450   2.437       .  S
Zr3447     O3451   2.433       .  S
Zr3447     O3452   2.448       .  S
O3448     Zr3965   2.457   1_554  S
O3448      C3453   1.288       .  A
O3449      H3466   0.990       .  S
O3449      H4017   0.990       .  S
O3450      H3467   0.990       .  S
O3451      H3471   0.990       .  S
O3451      H3480   0.988       .  S
O3452      C3453   1.288       .  A
C3453      C3698   1.501       .  S
O3454      H3473   0.990       .  S
O3454      H3477   0.990       .  S
O3455      H3469   0.990       .  S
O3455      H4012   0.990       .  S
O3456     Zr3965   2.423   1_554  S
O3456      C3460   1.282       .  A
O3458      H3468   0.990       .  S
C3460      C3748   1.416       .  S
H3476      O3991   0.990       .  S
H3481      O3985   0.990   1_554  S
Zr3483     O3484   2.443       .  S
Zr3483     O3485   2.475       .  S
Zr3483     O3486   2.465       .  S
Zr3483     O3489   2.458       .  S
Zr3483     O3491   2.392       .  S
Zr3483     O3492   2.380       .  S
Zr3483     O3494   2.417       .  S
O3484      H3540   0.990       .  S
O3484      H3548   0.990       .  S
O3485      C3505   1.291       .  A
O3486      C3507   1.289       .  A
O3487     Zr3497   2.438       .  S
O3487      C3506   1.285       .  A
O3488     Zr3496   2.416       .  S
O3489      C3506   1.288       .  A
O3490     Zr3498   2.404       .  S
O3490      C3505   1.277       .  A
O3491     Zr3498   2.385       .  S
O3492     Zr3497   2.375       .  S
O3492     Zr3498   2.375       .  S
O3492      H3527   0.965       .  S
O3493     Zr3496   2.404       .  S
O3493     Zr3513   2.390       .  S
O3493      H3530   0.965       .  S
O3494     Zr3497   2.387       .  S
Zr3495     O3520   2.441       .  S
Zr3495     O3514   2.439       .  S
Zr3495     O3522   2.426       .  S
Zr3495     O3510   2.471       .  S
Zr3495     O3502   2.408       .  S
Zr3495     O3503   2.373       .  S
Zr3495     O3504   2.394       .  S
Zr3496     O3515   2.441       .  S
Zr3496     O3508   2.435       .  S
Zr3496     O3509   2.430       .  S
Zr3496     O3502   2.390       .  S
Zr3496     O3503   2.381       .  S
Zr3497     O3499   2.435       .  S
Zr3497     O3521   2.439       .  S
Zr3497     O3523   2.409       .  S
Zr3497     O3501   2.400       .  S
Zr3498     O3524   2.435       .  S
Zr3498     O3525   2.434       .  S
Zr3498     O3500   2.426       .  S
Zr3498     O3501   2.383       .  S
O3499      H3536   0.990       .  S
O3500      H3531   0.990       .  S
O3500      H3545   0.989       .  S
O3502      H3528   0.966       .  S
O3503     Zr3513   2.366       .  S
O3504     Zr3513   2.369       .  S
O3504      H3529   0.967       .  S
C3505      C3673   1.479       .  S
C3506      C3681   1.489       .  S
C3507      C3739   1.434       .  S
O3508      H3544   0.990       .  S
O3509      C3511   1.284       .  A
O3510      C3511   1.291       .  A
C3511      C3678   1.491       .  S
O3512     Zr3513   2.439       .  S
O3512      H3541   0.991       .  S
Zr3513     O3516   2.437       .  S
Zr3513     O3517   2.434       .  S
Zr3513     O3518   2.434       .  S
O3514      C3519   1.284       .  A
O3515      H3532   0.990       .  S
O3515      H3547   0.990       .  S
O3516      H3533   0.989       .  S
O3517      H3537   0.990       .  S
O3517      H3546   0.989       .  S
O3518      C3519   1.286       .  A
C3519      C3685   1.485       .  S
O3520      H3539   0.990       .  S
O3520      H3543   0.990       .  S
O3521      H3535   0.990       .  S
O3521      H3542   0.990       .  S
O3522      C3526   1.283       .  A
O3524      H3534   0.990       .  S
C3526      C3738   1.427       .  S
O3549     Zr3561   2.436       .  S
O3549      C3551   1.285       .  A
O3550     Zr3587   2.453       .  S
O3550      C3551   1.291       .  A
C3551      C3734   1.481       .  S
O3552     Zr3564   2.453       .  S
O3552      C3554   1.290       .  A
O3553     Zr3588   2.457       .  S
O3553      C3554   1.292       .  A
C3554      C3677   1.497       .  S
O3555     Zr3564   2.440       .  S
O3555      C3557   1.287       .  A
O3556     Zr3587   2.463       .  S
O3556      C3557   1.293       .  A
C3557      C3709   1.484       .  S
O3558     Zr3561   2.453       .  S
O3558      C3560   1.290       .  A
O3559     Zr3588   2.448       .  S
O3559      C3560   1.290       .  A
C3560      C3702   1.491       .  S
Zr3561     O3562   2.432       .  S
Zr3561     O3563   2.434       .  S
Zr3561     O3567   2.362       .  S
Zr3561     O3568   2.372       .  S
Zr3561     O3591   2.370       .  S
Zr3561     O3593   2.384       .  S
O3562      H3605   0.991       .  S
O3563      H3604   0.990       .  S
O3563      H3608   0.990       .  S
Zr3564     O3565   2.438       .  S
Zr3564     O3566   2.430       .  S
Zr3564     O3568   2.368       .  S
Zr3564     O3567   2.365       .  S
Zr3564     O3592   2.377       .  S
Zr3564     O3594   2.369       .  S
O3565      H3606   0.990       .  S
O3565      H3609   0.990       .  S
O3566      H3599   0.990       .  S
O3567     Zr3587   2.385       .  S
O3568     Zr3588   2.389       .  S
O3568      H3595   0.965       .  S
O3569     Zr3581   2.459       .  S
O3569      C3571   1.291       .  A
O3570     Zr3588   2.447       .  S
O3570      C3571   1.291       .  A
C3571      C3730   1.492       .  S
O3572     Zr3584   2.456       .  S
O3572      C3574   1.292       .  A
O3573     Zr3587   2.432       .  S
O3573      C3574   1.286       .  A
C3574      C3674   1.481       .  S
O3575     Zr3584   2.457       .  S
O3575      C3577   1.291       .  A
O3576     Zr3588   2.438       .  S
O3576      C3577   1.288       .  A
C3577      C3705   1.481       .  S
O3578     Zr3581   2.440       .  S
O3578      C3580   1.287       .  A
O3579     Zr3587   2.475       .  S
O3579      C3580   1.295       .  A
C3580      C3697   1.489       .  S
Zr3581     O3582   2.438       .  S
Zr3581     O3583   2.430       .  S
Zr3581     O3589   2.364       .  S
Zr3581     O3590   2.366       .  S
Zr3581     O3593   2.386       .  S
Zr3581     O3591   2.379       .  S
O3582      H3602   0.990       .  S
O3582      H3607   0.990       .  S
O3583      H3603   0.990       .  S
Zr3584     O3585   2.433       .  S
Zr3584     O3586   2.431       .  S
Zr3584     O3590   2.365       .  S
Zr3584     O3589   2.376       .  S
Zr3584     O3594   2.373       .  S
Zr3584     O3592   2.378       .  S
O3585      H3601   0.990       .  S
O3586      H3600   0.990       .  S
O3586      H3610   0.990       .  S
Zr3587     O3590   2.388       .  S
Zr3587     O3592   2.406       .  S
Zr3587     O3593   2.407       .  S
Zr3588     O3589   2.397       .  S
Zr3588     O3591   2.394       .  S
Zr3588     O3594   2.392       .  S
O3589      H3597   0.965       .  S
O3592      H3596   0.967       .  S
O3593      H3598   0.967       .  S
O3611     Zr3623   2.437       .  S
O3611      C3613   1.287       .  A
O3612     Zr3649   2.459       .  S
O3612      C3613   1.292       .  A
C3613      C3718   1.493       .  S
O3614     Zr3626   2.454       .  S
O3614      C3616   1.289       .  A
O3615     Zr3650   2.458       .  S
O3615      C3616   1.292       .  A
C3616      C3693   1.488       .  S
O3617     Zr3626   2.452       .  S
O3617      C3619   1.291       .  A
O3618     Zr3649   2.437       .  S
O3618      C3619   1.288       .  A
C3619      C3725   1.488       .  S
O3620     Zr3623   2.420       .  S
O3620      C3622   1.283       .  A
O3621     Zr3650   2.467       .  S
O3621      C3622   1.293       .  A
C3622      C3686   1.477       .  S
Zr3623     O3624   2.433       .  S
Zr3623     O3625   2.431       .  S
Zr3623     O3629   2.364       .  S
Zr3623     O3630   2.374       .  S
Zr3623     O3653   2.371       .  S
Zr3623     O3655   2.363       .  S
O3624      H3667   0.990       .  S
O3625      H3666   0.989       .  S
O3625      H3670   0.990       .  S
Zr3626     O3627   2.439       .  S
Zr3626     O3628   2.433       .  S
Zr3626     O3630   2.369       .  S
Zr3626     O3629   2.373       .  S
Zr3626     O3654   2.369       .  S
Zr3626     O3656   2.372       .  S
O3627      H3668   0.990       .  S
O3627      H3671   0.990       .  S
O3628      H3661   0.990       .  S
O3629     Zr3649   2.382       .  S
O3630     Zr3650   2.400       .  S
O3630      H3657   0.965       .  S
O3631     Zr3643   2.451       .  S
O3631      C3633   1.291       .  A
O3632     Zr3650   2.443       .  S
O3632      C3633   1.289       .  A
C3633      C3714   1.484       .  S
O3634     Zr3646   2.458       .  S
O3634      C3636   1.292       .  A
O3635     Zr3649   2.433       .  S
O3635      C3636   1.288       .  A
C3636      C3690   1.485       .  S
O3637     Zr3646   2.449       .  S
O3637      C3639   1.289       .  A
O3638     Zr3650   2.468       .  S
O3638      C3639   1.295       .  A
C3639      C3722   1.490       .  S
O3640     Zr3643   2.458       .  S
O3640      C3642   1.292       .  A
O3641     Zr3649   2.447       .  S
O3641      C3642   1.291       .  A
C3642      C3682   1.492       .  S
Zr3643     O3644   2.439       .  S
Zr3643     O3645   2.431       .  S
Zr3643     O3651   2.374       .  S
Zr3643     O3652   2.367       .  S
Zr3643     O3655   2.381       .  S
Zr3643     O3653   2.381       .  S
O3644      H3664   0.990       .  S
O3644      H3669   0.990       .  S
O3645      H3665   0.990       .  S
Zr3646     O3647   2.434       .  S
Zr3646     O3648   2.432       .  S
Zr3646     O3652   2.366       .  S
Zr3646     O3651   2.373       .  S
Zr3646     O3656   2.381       .  S
Zr3646     O3654   2.378       .  S
O3647      H3663   0.990       .  S
O3648      H3662   0.990       .  S
O3648      H3672   0.990       .  S
Zr3649     O3652   2.387       .  S
Zr3649     O3654   2.400       .  S
Zr3649     O3655   2.389       .  S
Zr3650     O3651   2.400       .  S
Zr3650     O3653   2.399       .  S
Zr3650     O3656   2.399       .  S
O3651      H3659   0.966       .  S
O3654      H3658   0.968       .  S
O3655      H3660   0.968       .  S
C3673      C3674   1.341       .  D
C3673      H3675   1.089       .  S
C3674      H3676   1.086       .  S
C3677      C3678   1.351       .  D
C3677      H3679   1.086       .  S
C3678      H3680   1.087       .  S
C3681      C3682   1.350       .  D
C3681      H3683   1.087       .  S
C3682      H3684   1.086       .  S
C3685      C3686   1.343       .  D
C3685      H3687   1.086       .  S
C3686      H3688   1.089       .  S
C3689      C3690   1.345       .  D
C3689      H3691   1.087       .  S
C3690      H3692   1.087       .  S
C3693      C3694   1.349       .  D
C3693      H3695   1.088       .  S
C3694      H3696   1.086       .  S
C3697      C3698   1.350       .  D
C3697      H3699   1.087       .  S
C3698      H3700   1.086       .  S
C3701      C3702   1.351       .  D
C3701      H3703   1.087       .  S
C3702      H3704   1.086       .  S
C3705      C3706   1.348       .  D
C3705      H3707   1.086       .  S
C3706      H3708   1.087       .  S
C3709      C3710   1.348       .  D
C3709      H3711   1.087       .  S
C3710      H3712   1.086       .  S
C3713      C3714   1.344       .  D
C3713      H3715   1.089       .  S
C3714      H3716   1.086       .  S
C3717      C3718   1.354       .  D
C3717      H3719   1.087       .  S
C3718      H3720   1.086       .  S
C3721      C3722   1.348       .  D
C3721      H3723   1.087       .  S
C3722      H3724   1.087       .  S
C3725      C3726   1.347       .  D
C3725      H3727   1.086       .  S
C3726      H3728   1.087       .  S
C3729      C3730   1.351       .  D
C3729      H3731   1.087       .  S
C3730      H3732   1.086       .  S
C3733      C3734   1.344       .  D
C3733      H3735   1.086       .  S
C3734      H3736   1.087       .  S
C3737      C3738   1.201       .  T
C3739      C3740   1.207       .  T
C3741      C3742   1.202       .  T
C3743      C3744   1.199       .  T
C3745      C3746   1.197   1_565  T
C3747      C3748   1.195       .  T
C3749      C3750   1.201       .  T
C3751      C3752   1.200       .  T
C3752      C3773   1.440       .  S
N3753      C3758   1.349       .  A
N3753      H3785   1.040       .  S
N3754      C3761   1.348   1_556  A
N3754      C3762   1.348       .  A
N3755      C3760   1.352       .  A
N3755      H3786   1.039       .  S
N3756      C3763   1.348       .  A
N3756      C3764   1.350       .  A
C3757      C3765   1.388       .  A
C3757      C3773   1.405       .  A
C3758      C3774   1.404       .  A
C3758      C3766   1.388       .  A
C3759      C3767   1.388       .  A
C3760      C3768   1.386       .  A
C3761      C3769   1.386       .  A
C3762      C3776   1.409       .  A
C3762      C3770   1.388   1_556  A
C3763      C3771   1.388       .  A
C3764      C3772   1.386       .  A
C3764      C3775   1.408       .  A
C3765      H3777   1.082       .  S
C3766      H3778   1.082       .  S
C3767      H3779   1.083       .  S
C3768      H3780   1.082       .  S
C3769      C3770   1.375       .  A
C3769      H3781   1.083       .  S
C3770      H3782   1.082       .  S
C3771      C3772   1.375       .  A
C3771      H3783   1.083       .  S
C3772      H3784   1.082       .  S
C3774      C4283   1.435       .  S
N3787      C3792   1.350       .  A
N3787      C3791   1.349       .  A
N3787      H3819   1.036       .  S
N3788      C3795   1.350       .  A
N3788      C3796   1.350       .  A
N3789      C3794   1.348       .  A
N3789      C3793   1.350       .  A
N3789      H3820   1.037       .  S
N3790      C3797   1.352       .  A
N3790      C3798   1.351       .  A
C3791      C3799   1.387       .  A
C3791      C3807   1.408   1_655  A
C3792      C3808   1.409       .  A
C3792      C3800   1.389       .  A
C3793      C3801   1.388       .  A
C3794      C3802   1.387       .  A
C3795      C3803   1.386       .  A
C3796      C3810   1.412       .  A
C3796      C3804   1.388       .  A
C3797      C3805   1.385       .  A
C3798      C3806   1.387       .  A
C3798      C3809   1.414       .  A
C3799      C3800   1.373       .  A
C3799      H3811   1.082       .  S
C3800      H3812   1.082       .  S
C3801      C3802   1.375       .  A
C3801      H3813   1.082       .  S
C3802      H3814   1.083       .  S
C3803      C3804   1.375       .  A
C3803      H3815   1.082       .  S
C3804      H3816   1.082       .  S
C3805      C3806   1.378       .  A
C3805      H3817   1.082       .  S
C3806      H3818   1.082       .  S
C3807      C4279   1.440       .  S
C3808      C4276   1.445       .  S
Zr3821     O3822   2.441       .  S
Zr3821     O3827   2.444       .  S
Zr3821     O3832   2.408       .  S
O3822      H3878   0.991       .  S
O3822      H3886   0.990       .  S
O3823      C3843   1.290       .  A
O3824      C3845   1.285       .  A
O3825     Zr3835   2.453       .  S
O3825      C3844   1.288       .  A
O3826     Zr3834   2.417       .  S
O3827      C3844   1.286       .  A
O3828     Zr3836   2.417       .  S
O3828      C3843   1.280       .  A
O3829     Zr3836   2.375       .  S
O3830     Zr3836   2.379       .  S
O3830      H3865   0.965       .  S
O3831     Zr3851   2.395       .  S
O3831      H3868   0.966       .  S
O3832     Zr3835   2.383       .  S
Zr3833     O3858   2.441       .  S
Zr3833     O3848   2.438       .  S
Zr3833     O3840   2.414       .  S
Zr3834     O3853   2.438       .  S
Zr3834     O3846   2.436       .  S
Zr3834     O3847   2.450       .  S
Zr3834     O3840   2.392       .  S
Zr3835     O3837   2.435       .  S
Zr3835     O3859   2.439       .  S
Zr3835     O3861   2.421       .  S
Zr3836     O3862   2.436       .  S
Zr3836     O3863   2.434       .  S
Zr3836     O3838   2.433       .  S
Zr3836     O3839   2.382       .  S
O3837      H3874   0.990       .  S
O3838      H3869   0.990       .  S
O3838      H3883   0.990       .  S
O3840      H3866   0.966       .  S
O3841     Zr3851   2.367       .  S
O3842     Zr3851   2.374       .  S
O3842      H3867   0.966       .  S
C3843      C4269   1.484       .  S
C3844      C4262   1.488       .  S
C3845      C4287   1.425       .  S
O3846      H3882   0.990       .  S
O3847      C3849   1.288       .  A
O3848      C3849   1.284       .  A
C3849      C4265   1.486       .  S
O3850     Zr3851   2.438       .  S
O3850      H3879   0.990       .  S
Zr3851     O3854   2.438       .  S
Zr3851     O3855   2.424       .  S
Zr3851     O3856   2.435       .  S
O3852      C3857   1.287       .  A
O3853      H3870   0.990       .  S
O3854      H3871   0.990       .  S
O3855      H3875   0.990       .  S
O3855      H3884   0.990       .  S
O3856      C3857   1.283       .  A
C3857      C4257   1.480       .  S
O3858      H3877   0.990       .  S
O3858      H3881   0.991       .  S
O3859      H3873   0.990       .  S
O3860      C3864   1.283       .  A
O3862      H3872   0.990       .  S
C3864      C4286   1.426       .  S
Zr3887     O3888   2.439       .  S
Zr3887     O3889   2.443       .  S
Zr3887     O3890   2.428       .  S
Zr3887     O3893   2.446       .  S
Zr3887     O3895   2.382       .  S
Zr3887     O3896   2.379       .  S
Zr3887     O3898   2.405       .  S
O3888      H3944   0.991       .  S
O3888      H3952   0.990       .  S
O3889      C3909   1.285       .  A
O3890      C3911   1.282       .  A
O3891     Zr3901   2.439       .  S
O3891      C3910   1.285       .  A
O3892     Zr3900   2.410       .  S
O3893      C3910   1.287       .  A
O3894     Zr3902   2.450       .  S
O3894      C3909   1.288       .  A
O3895     Zr3902   2.364       .  S
O3896     Zr3901   2.378       .  S
O3896     Zr3902   2.370       .  S
O3896      H3931   0.966       .  S
O3897     Zr3900   2.408       .  S
O3897     Zr3917   2.390       .  S
O3897      H3934   0.966       .  S
O3898     Zr3901   2.387       .  S
Zr3899     O3924   2.444       .  S
Zr3899     O3918   2.452       .  S
Zr3899     O3926   2.431       .  S
Zr3899     O3914   2.453       .  S
Zr3899     O3906   2.408       .  S
Zr3899     O3907   2.373       .  S
Zr3899     O3908   2.392       .  S
Zr3900     O3919   2.439       .  S
Zr3900     O3912   2.434       .  S
Zr3900     O3913   2.455       .  S
Zr3900     O3906   2.387       .  S
Zr3900     O3907   2.373       .  S
Zr3901     O3903   2.435       .  S
Zr3901     O3925   2.438       .  S
Zr3901     O3927   2.411       .  S
Zr3901     O3905   2.397       .  S
Zr3902     O3928   2.437       .  S
Zr3902     O3929   2.436       .  S
Zr3902     O3904   2.429       .  S
Zr3902     O3905   2.404       .  S
O3903      H3940   0.990       .  S
O3904      H3935   0.990       .  S
O3904      H3949   0.989       .  S
O3906      H3932   0.966       .  S
O3907     Zr3917   2.370       .  S
O3908     Zr3917   2.372       .  S
O3908      H3933   0.966       .  S
C3909      C4249   1.493       .  S
C3910      C4242   1.484       .  S
C3911      C4278   1.419       .  S
O3912      H3948   0.990       .  S
O3913      C3915   1.289       .  A
O3914      C3915   1.288       .  A
C3915      C4253   1.495       .  S
O3916     Zr3917   2.433       .  S
O3916      H3945   0.990   1_655  S
Zr3917     O3920   2.437       .  S
Zr3917     O3921   2.439       .  S
Zr3917     O3922   2.439       .  S
O3918      C3923   1.287       .  A
O3919      H3936   0.990       .  S
O3919      H3951   0.990       .  S
O3920      H3937   0.990       .  S
O3921      H3941   0.990       .  S
O3921      H3950   0.990   1_655  S
O3922      C3923   1.286       .  A
C3923      C4246   1.491       .  S
O3924      H3943   0.990       .  S
O3924      H3947   0.990       .  S
O3925      H3939   0.990       .  S
O3925      H3946   0.990       .  S
O3926      C3930   1.284       .  A
O3928      H3938   0.990       .  S
C3930      C4280   1.424       .  S
Zr3953     O3954   2.437       .  S
Zr3953     O3959   2.442       .  S
Zr3953     O3964   2.410       .  S
O3954      H4010   0.990       .  S
O3954      H4018   0.990       .  S
O3955      C3975   1.286       .  A
O3956      C3977   1.284       .  A
O3957     Zr3967   2.454       .  S
O3957      C3976   1.288       .  A
O3958     Zr3966   2.404       .  S
O3959      C3976   1.286       .  A
O3960     Zr3968   2.434       .  S
O3960      C3975   1.286       .  A
O3961     Zr3968   2.371       .  S
O3962     Zr3968   2.370       .  S
O3962      H3997   0.966       .  S
O3963     Zr3983   2.398       .  S
O3963      H4000   0.967       .  S
O3964     Zr3967   2.380       .  S
Zr3965     O3990   2.445       .  S
Zr3965     O3980   2.451       .  S
Zr3965     O3972   2.409       .  S
Zr3966     O3985   2.439       .  S
Zr3966     O3978   2.437       .  S
Zr3966     O3979   2.434       .  S
Zr3966     O3972   2.393       .  S
Zr3967     O3969   2.433       .  S
Zr3967     O3991   2.437       .  S
Zr3967     O3993   2.405       .  S
Zr3968     O3994   2.434       .  S
Zr3968     O3995   2.434       .  S
Zr3968     O3970   2.434       .  S
Zr3968     O3971   2.396       .  S
O3969      H4006   0.990       .  S
O3970      H4001   0.990       .  S
O3970      H4015   0.990       .  S
O3972      H3998   0.966       .  S
O3973     Zr3983   2.367       .  S
O3974     Zr3983   2.375       .  S
O3974      H3999   0.966       .  S
C3975      C4230   1.485       .  S
C3976      C4237   1.491       .  S
C3977      C4281   1.421       .  S
O3978      H4014   0.990       .  S
O3979      C3981   1.284       .  A
O3980      C3981   1.287       .  A
C3981      C4225   1.483       .  S
O3982     Zr3983   2.439       .  S
O3982      H4011   0.991       .  S
Zr3983     O3986   2.437       .  S
Zr3983     O3987   2.429       .  S
Zr3983     O3988   2.443       .  S
O3984      C3989   1.284       .  A
O3985      H4002   0.990       .  S
O3986      H4003   0.990       .  S
O3987      H4007   0.989       .  S
O3987      H4016   0.990       .  S
O3988      C3989   1.288       .  A
C3989      C4234   1.487       .  S
O3990      H4009   0.990       .  S
O3990      H4013   0.990       .  S
O3991      H4005   0.990       .  S
O3992      C3996   1.283       .  A
O3994      H4004   0.990       .  S
C3996      C4284   1.418       .  S
Zr4019     O4020   2.443       .  S
Zr4019     O4021   2.471       .  S
Zr4019     O4022   2.442       .  S
Zr4019     O4025   2.431       .  S
Zr4019     O4027   2.383       .  S
Zr4019     O4028   2.379       .  S
Zr4019     O4030   2.413       .  S
O4020      H4076   0.990       .  S
O4020      H4084   0.991       .  S
O4021      C4041   1.290       .  A
O4022      C4043   1.284       .  A
O4023     Zr4033   2.482       .  S
O4023      C4042   1.295       .  A
O4024     Zr4032   2.410       .  S
O4025      C4042   1.283       .  A
O4026     Zr4034   2.424       .  S
O4026      C4041   1.284       .  A
O4027     Zr4034   2.376       .  S
O4028     Zr4033   2.378       .  S
O4028     Zr4034   2.380       .  S
O4028      H4063   0.965       .  S
O4029     Zr4032   2.406       .  S
O4029     Zr4049   2.392       .  S
O4029      H4066   0.965       .  S
O4030     Zr4033   2.394       .  S
Zr4031     O4056   2.440       .  S
Zr4031     O4050   2.448       .  S
Zr4031     O4058   2.435       .  S
Zr4031     O4046   2.459       .  S
Zr4031     O4038   2.408       .  S
Zr4031     O4039   2.374       .  S
Zr4031     O4040   2.396       .  S
Zr4032     O4051   2.441       .  S
Zr4032     O4044   2.434       .  S
Zr4032     O4045   2.428       .  S
Zr4032     O4038   2.391       .  S
Zr4032     O4039   2.383       .  S
Zr4033     O4035   2.435       .  S
Zr4033     O4057   2.436       .  S
Zr4033     O4059   2.443       .  S
Zr4033     O4037   2.404       .  S
Zr4034     O4060   2.434       .  S
Zr4034     O4061   2.435       .  S
Zr4034     O4036   2.433       .  S
Zr4034     O4037   2.396       .  S
O4035      H4072   0.990       .  S
O4036      H4067   0.990       .  S
O4036      H4081   0.989       .  S
O4038      H4064   0.966       .  S
O4039     Zr4049   2.369       .  S
O4040     Zr4049   2.381       .  S
O4040      H4065   0.965       .  S
C4041      C4209   1.489       .  S
C4042      C4217   1.501       .  S
C4043      C4275   1.428       .  S
O4044      H4080   0.990       .  S
O4045      C4047   1.283       .  A
O4046      C4047   1.288       .  A
C4047      C4214   1.484       .  S
O4048     Zr4049   2.436       .  S
O4048      H4077   0.990   1_565  S
Zr4049     O4052   2.436       .  S
Zr4049     O4053   2.436       .  S
Zr4049     O4054   2.430       .  S
O4050      C4055   1.287       .  A
O4051      H4068   0.990       .  S
O4051      H4083   0.990       .  S
O4052      H4069   0.990       .  S
O4053      H4073   0.991       .  S
O4053      H4082   0.989       .  S
O4054      C4055   1.283       .  A
C4055      C4221   1.480       .  S
O4056      H4075   0.990       .  S
O4056      H4079   0.990       .  S
O4057      H4071   0.990       .  S
O4057      H4078   0.990       .  S
O4058      C4062   1.285       .  A
O4060      H4070   0.990       .  S
C4062      C4274   1.430       .  S
O4085     Zr4097   2.463       .  S
O4085      C4087   1.293       .  A
O4086     Zr4123   2.434       .  S
O4086      C4087   1.287       .  A
C4087      C4270   1.489       .  S
O4088     Zr4100   2.461       .  S
O4088      C4090   1.291       .  A
O4089     Zr4124   2.439       .  S
O4089      C4090   1.288       .  A
C4090      C4213   1.487       .  S
O4091     Zr4100   2.450       .  S
O4091      C4093   1.289       .  A
O4092     Zr4123   2.449       .  S
O4092      C4093   1.290       .  A
C4093      C4245   1.482       .  S
O4094     Zr4097   2.465       .  S
O4094      C4096   1.293       .  A
O4095     Zr4124   2.452       .  S
O4095      C4096   1.292       .  A
C4096      C4238   1.494       .  S
Zr4097     O4098   2.435       .  S
Zr4097     O4099   2.432       .  S
Zr4097     O4103   2.363       .  S
Zr4097     O4104   2.374       .  S
Zr4097     O4127   2.385       .  S
Zr4097     O4129   2.384       .  S
O4098      H4141   0.991       .  S
O4099      H4140   0.990       .  S
O4099      H4144   0.990       .  S
Zr4100     O4101   2.438       .  S
Zr4100     O4102   2.428       .  S
Zr4100     O4104   2.368       .  S
Zr4100     O4103   2.365       .  S
Zr4100     O4128   2.380       .  S
Zr4100     O4130   2.376       .  S
O4101      H4142   0.990       .  S
O4101      H4145   0.990       .  S
O4102      H4135   0.990       .  S
O4103     Zr4123   2.387       .  S
O4104     Zr4124   2.399       .  S
O4104      H4131   0.965       .  S
O4105     Zr4117   2.448       .  S
O4105      C4107   1.288       .  A
O4106     Zr4124   2.456       .  S
O4106      C4107   1.291       .  A
C4107      C4266   1.491       .  S
O4108     Zr4120   2.447       .  S
O4108      C4110   1.289       .  A
O4109     Zr4123   2.446       .  S
O4109      C4110   1.289       .  A
C4110      C4210   1.483       .  S
O4111     Zr4120   2.441       .  S
O4111      C4113   1.289       .  A
O4112     Zr4124   2.454       .  S
O4112      C4113   1.291       .  A
C4113      C4241   1.489       .  S
O4114     Zr4117   2.429       .  S
O4114      C4116   1.283       .  A
O4115     Zr4123   2.452       .  S
O4115      C4116   1.290       .  A
C4116      C4233   1.475       .  S
Zr4117     O4118   2.440       .  S
Zr4117     O4119   2.432       .  S
Zr4117     O4125   2.370       .  S
Zr4117     O4126   2.367       .  S
Zr4117     O4129   2.372       .  S
Zr4117     O4127   2.370       .  S
O4118      H4138   0.990       .  S
O4118      H4143   0.990       .  S
O4119      H4139   0.990       .  S
Zr4120     O4121   2.434       .  S
Zr4120     O4122   2.435       .  S
Zr4120     O4126   2.360       .  S
Zr4120     O4125   2.374       .  S
Zr4120     O4130   2.372       .  S
Zr4120     O4128   2.377       .  S
O4121      H4137   0.990       .  S
O4122      H4136   0.990       .  S
O4122      H4146   0.990       .  S
Zr4123     O4126   2.381       .  S
Zr4123     O4128   2.402       .  S
Zr4123     O4129   2.400       .  S
Zr4124     O4125   2.390       .  S
Zr4124     O4127   2.395       .  S
Zr4124     O4130   2.396       .  S
O4125      H4133   0.965       .  S
O4128      H4132   0.967       .  S
O4129      H4134   0.967       .  S
O4147     Zr4159   2.467       .  S
O4147      C4149   1.293       .  A
O4148     Zr4185   2.451       .  S
O4148      C4149   1.292       .  A
C4149      C4254   1.497       .  S
O4150     Zr4162   2.434       .  S
O4150      C4152   1.286       .  A
O4151     Zr4186   2.461       .  S
O4151      C4152   1.293       .  A
C4152      C4229   1.480       .  S
O4153     Zr4162   2.429       .  S
O4153      C4155   1.287       .  A
O4154     Zr4185   2.475       .  S
O4154      C4155   1.296       .  A
C4155      C4261   1.494       .  S
O4156     Zr4159   2.461       .  S
O4156      C4158   1.292       .  A
O4157     Zr4186   2.435       .  S
O4157      C4158   1.288       .  A
C4158      C4222   1.484       .  S
Zr4159     O4160   2.436       .  S
Zr4159     O4161   2.427       .  S
Zr4159     O4165   2.369       .  S
Zr4159     O4166   2.373       .  S
Zr4159     O4189   2.375       .  S
Zr4159     O4191   2.378       .  S
O4160      H4203   0.990       .  S
O4161      H4202   0.990       .  S
O4161      H4206   0.990       .  S
Zr4162     O4163   2.435       .  S
Zr4162     O4164   2.433       .  S
Zr4162     O4166   2.362       .  S
Zr4162     O4165   2.367       .  S
Zr4162     O4190   2.373       .  S
Zr4162     O4192   2.375       .  S
O4163      H4204   0.990       .  S
O4163      H4207   0.990       .  S
O4164      H4197   0.990       .  S
O4165     Zr4185   2.389       .  S
O4166     Zr4186   2.398       .  S
O4166      H4193   0.965       .  S
O4167     Zr4179   2.439       .  S
O4167      C4169   1.285       .  A
O4168     Zr4186   2.457       .  S
O4168      C4169   1.291       .  A
C4169      C4250   1.479       .  S
O4170     Zr4182   2.454       .  S
O4170      C4172   1.291       .  A
O4171     Zr4185   2.440       .  S
O4171      C4172   1.289       .  A
C4172      C4226   1.488       .  S
O4173     Zr4182   2.460       .  S
O4173      C4175   1.291       .  A
O4174     Zr4186   2.445       .  S
O4174      C4175   1.291       .  A
C4175      C4258   1.486       .  S
O4176     Zr4179   2.424       .  S
O4176      C4178   1.284       .  A
O4177     Zr4185   2.492       .  S
O4177      C4178   1.299       .  A
C4178      C4218   1.497       .  S
Zr4179     O4180   2.436       .  S
Zr4179     O4181   2.432       .  S
Zr4179     O4187   2.364       .  S
Zr4179     O4188   2.369       .  S
Zr4179     O4191   2.382       .  S
Zr4179     O4189   2.369       .  S
O4180      H4200   0.991       .  S
O4180      H4205   0.990       .  S
O4181      H4201   0.990       .  S
Zr4182     O4183   2.434       .  S
Zr4182     O4184   2.432       .  S
Zr4182     O4188   2.370       .  S
Zr4182     O4187   2.371       .  S
Zr4182     O4192   2.373       .  S
Zr4182     O4190   2.365       .  S
O4183      H4199   0.990       .  S
O4184      H4198   0.990       .  S
O4184      H4208   0.990       .  S
Zr4185     O4188   2.388       .  S
Zr4185     O4190   2.397       .  S
Zr4185     O4191   2.402       .  S
Zr4186     O4187   2.392       .  S
Zr4186     O4189   2.395       .  S
Zr4186     O4192   2.396       .  S
O4187      H4195   0.965       .  S
O4190      H4194   0.966       .  S
O4191      H4196   0.967       .  S
C4209      C4210   1.350       .  D
C4209      H4211   1.086       .  S
C4210      H4212   1.088       .  S
C4213      C4214   1.347       .  D
C4213      H4215   1.086       .  S
C4214      H4216   1.087       .  S
C4217      C4218   1.345       .  D
C4217      H4219   1.086       .  S
C4218      H4220   1.088       .  S
C4221      C4222   1.345       .  D
C4221      H4223   1.088       .  S
C4222      H4224   1.086       .  S
C4225      C4226   1.349       .  D
C4225      H4227   1.087       .  S
C4226      H4228   1.086       .  S
C4229      C4230   1.345       .  D
C4229      H4231   1.088       .  S
C4230      H4232   1.086       .  S
C4233      C4234   1.343       .  D
C4233      H4235   1.087       .  S
C4234      H4236   1.087       .  S
C4237      C4238   1.352       .  D
C4237      H4239   1.087       .  S
C4238      H4240   1.086       .  S
C4241      C4242   1.351       .  D
C4241      H4243   1.086       .  S
C4242      H4244   1.087       .  S
C4245      C4246   1.349       .  D
C4245      H4247   1.087       .  S
C4246      H4248   1.086       .  S
C4249      C4250   1.346       .  D
C4249      H4251   1.087       .  S
C4250      H4252   1.086       .  S
C4253      C4254   1.354       .  D
C4253      H4255   1.087       .  S
C4254      H4256   1.086       .  S
C4257      C4258   1.348       .  D
C4257      H4259   1.087       .  S
C4258      H4260   1.088       .  S
C4261      C4262   1.355       .  D
C4261      H4263   1.086       .  S
C4262      H4264   1.087       .  S
C4265      C4266   1.354       .  D
C4265      H4267   1.087       .  S
C4266      H4268   1.086       .  S
C4269      C4270   1.345       .  D
C4269      H4271   1.088       .  S
C4270      H4272   1.086       .  S
C4273      C4274   1.204       .  T
C4275      C4276   1.203       .  T
C4277      C4278   1.197       .  T
C4279      C4280   1.200   1_455  T
C4281      C4282   1.199       .  T
C4283      C4284   1.196       .  T
C4285      C4286   1.201       .  T
C4287      C4288   1.201       .  T
