geometry optimzed in LAMMPS
_audit_creation_date              2020-11-30 
_audit_creation_method            'lammps2cif' 
_symmetry_space_group_name_H-M    'P1' 
_symmetry_Int_Tables_number       1 
_symmetry_cell_setting            triclinic 
loop_ 
_symmetry_equiv_pos_as_xyz 
  x,y,z 
_cell_length_a                    27.2685187 
_cell_length_b                    28.50101291388629 
_cell_length_c                    28.432195745794534 
_cell_angle_alpha                 89.84943232796583 
_cell_angle_beta                  90.86988755328315 
_cell_angle_gamma                 90.1770431349547 
loop_ 
_atom_site_label 
_atom_site_type_symbol 
_atom_site_fract_x 
_atom_site_fract_y 
_atom_site_fract_z 
_atom_site_charge 
Zn1        Zn  0.46980827  0.52528950  0.05735643     1.49700
Zn2        Zn  0.55137000  0.52398676  0.96969922     1.49400
Zn3        Zn  0.55404406  0.43900727  0.05855740     1.49100
Zn4        Zn  0.46501241  0.43776186  0.97295674     1.49500
O5          O  0.51023629  0.48124539  0.01433449    -1.84100
O6          O  0.48245918  0.59861049  0.04082120    -0.74700
O7          O  0.62865073  0.51292989  0.99026085    -0.74500
O8          O  0.54234534  0.45549536  0.13353586    -0.74100
O9          O  0.53339560  0.59903498  0.98044425    -0.74700
O10         O  0.48744249  0.51315708  0.13183458    -0.74300
O11         O  0.63007851  0.45629453  0.04494315    -0.74900
O12         O  0.48206343  0.36221106  0.98743869    -0.74300
O13         O  0.53577200  0.50484352  0.89428980    -0.75100
O14         O  0.53956683  0.36339676  0.04388791    -0.74500
O15         O  0.47749751  0.45030568  0.89771991    -0.74900
O16         O  0.38849088  0.45722642  0.98832224    -0.74800
O17         O  0.39338542  0.51292659  0.04339739    -0.74600
C18         C  0.50655534  0.62200792  0.01008278     0.77200
C19         C  0.65334105  0.48586357  0.01873347     0.77700
C20         C  0.51593703  0.48557098  0.15599030     0.76600
C21         C  0.51162087  0.33925794  0.01540769     0.77000
C22         C  0.50580739  0.47632136  0.87246632     0.78100
C23         C  0.36700485  0.48677233  0.01592877     0.77200
Zn24       Zn  0.45268273  0.95313553  0.53443538     1.49700
Zn25       Zn  0.54472489  0.95903160  0.45641224     1.49400
Zn26       Zn  0.44868681  0.03822435  0.45260769     1.49100
Zn27       Zn  0.53802443  0.04405877  0.53605751     1.49500
O28         O  0.49571307  0.99856947  0.49513023    -1.84100
O29         O  0.47517636  0.88012527  0.52119811    -0.74700
O30         O  0.52567095  0.96824679  0.38505304    -0.74500
O31         O  0.37149649  0.01920488  0.46132890    -0.74100
O32         O  0.53703586  0.88437268  0.47099330    -0.74700
O33         O  0.37261332  0.96260091  0.51544075    -0.74300
O34         O  0.46511874  0.02112401  0.38191591    -0.74900
O35         O  0.51757074  0.11634817  0.52213865    -0.74300
O36         O  0.62111957  0.98236786  0.46652793    -0.75100
O37         O  0.46024170  0.11371752  0.46542164    -0.74500
O38         O  0.61661474  0.03752663  0.52140776    -0.74900
O39         O  0.52440083  0.02736722  0.60897188    -0.74800
O40         O  0.46962429  0.96853987  0.60858940    -0.74600
C41         C  0.50806679  0.85920435  0.49636465     0.77200
C42         C  0.49476222  0.99304673  0.36126814     0.77700
C43         C  0.34767197  0.98908428  0.48634425     0.76600
C44         C  0.48792435  0.13806663  0.49375057     0.77000
C45         C  0.64296373  0.01304399  0.49307003     0.78100
C46         C  0.49781475  0.99750631  0.63166721     0.77200
Zn47       Zn  0.04209065  0.54706003  0.54936410     1.49700
Zn48       Zn  0.95707082  0.54536524  0.45911771     1.49400
Zn49       Zn  0.04557714  0.46350407  0.46178607     1.49100
Zn50       Zn  0.95719458  0.46273077  0.54718395     1.49500
O51         O  0.00083679  0.50462517  0.50407125    -1.84100
O52         O  0.02284763  0.62002587  0.53546002    -0.74700
O53         O  0.97752849  0.53687459  0.38329032    -0.74500
O54         O  0.12229998  0.47715960  0.48213299    -0.74100
O55         O  0.96882055  0.61738576  0.47571791    -0.74700
O56         O  0.12042290  0.53414647  0.53603438    -0.74300
O57         O  0.03621482  0.48276378  0.38530245    -0.74900
O58         O  0.97148682  0.38952643  0.53364064    -0.74300
O59         O  0.87965732  0.53242404  0.47636096    -0.75100
O60         O  0.02668479  0.38889022  0.47621018    -0.74500
O61         O  0.88108005  0.47931781  0.53437125    -0.74900
O62         O  0.96973979  0.47512712  0.62139614    -0.74800
O63         O  0.02500026  0.53255325  0.62385518    -0.74600
C64         C  0.99397926  0.64135108  0.50592643     0.77200
C65         C  0.00949715  0.51202314  0.36078960     0.77700
C66         C  0.14548765  0.50575617  0.51011030     0.76600
C67         C  0.99862940  0.36620604  0.50518647     0.77000
C68         C  0.85655274  0.50719002  0.50704423     0.78100
C69         C  0.99631896  0.50381749  0.64581580     0.77200
Zn70       Zn  0.04515184  0.04816619  0.03474257     1.49700
Zn71       Zn  0.95768972  0.04277718  0.94863033     1.49400
Zn72       Zn  0.04694532  0.96006022  0.95305022     1.49100
Zn73       Zn  0.95837006  0.96035844  0.03609987     1.49500
O74         O  0.00205174  0.00265011  0.99379072    -1.84100
O75         O  0.02682409  0.12030539  0.01567089    -0.74700
O76         O  0.97704825  0.02999900  0.87696818    -0.74500
O77         O  0.12374798  0.97975481  0.96381905    -0.74100
O78         O  0.96766438  0.11713242  0.96107618    -0.74700
O79         O  0.12326317  0.03803495  0.01621827    -0.74300
O80         O  0.03349619  0.97365599  0.88042130    -0.74900
O81         O  0.97198156  0.88458023  0.01790635    -0.74300
O82         O  0.88101965  0.02547982  0.95778878    -0.75100
O83         O  0.03094054  0.88501728  0.96434781    -0.74500
O84         O  0.88112471  0.97505867  0.01801059    -0.74900
O85         O  0.97394515  0.97949693  0.11232783    -0.74800
O86         O  0.02928336  0.03731372  0.11147875    -0.74600
C87         C  0.99636345  0.14170675  0.98783442     0.77200
C88         C  0.00666382  0.00203662  0.85610792     0.77700
C89         C  0.14743198  0.01128444  0.98782318     0.76600
C90         C  0.00021893  0.86141591  0.98956688     0.77000
C91         C  0.85706681  0.99947790  0.98680749     0.78100
C92         C  0.00095668  0.00977059  0.13565373     0.77200
C93         C  0.71038672  0.48833632  0.02123134     0.80300
N94         N  0.73624818  0.51914883  0.99353735    -0.78100
C95         C  0.78700682  0.51984521  0.99442847     0.82700
N96         N  0.81171122  0.49077779  0.02292951    -0.78000
C97         C  0.78808719  0.46188640  0.05223911     0.82800
N98         N  0.73734929  0.46041389  0.05167791    -0.79700
C99         C  0.31027696  0.49213778  0.01664743     0.80300
N100        N  0.28939571  0.52677455  0.04345952    -0.78100
C101        C  0.23914794  0.53218605  0.04423979     0.82700
N102        N  0.21024067  0.50389938  0.01931241    -0.78000
C103        C  0.22847982  0.47003525  0.99303723     0.82800
N104        N  0.27873259  0.46398517  0.99057026    -0.79700
C105        C  0.01383909  0.51502240  0.30495075     0.80300
N106        N  0.99426415  0.47955591  0.27752660    -0.78100
C107        C  0.99624629  0.48029343  0.22881960     0.82700
N108        N  0.01885241  0.51603808  0.20723265    -0.78000
C109        C  0.03988457  0.55163690  0.23153812     0.82800
N110        N  0.03719288  0.55158709  0.28085813    -0.79700
C111        C  0.99486888  0.19610880  0.98603666     0.80300
N112        N  0.02383943  0.22075459  0.95505459    -0.78100
C113        C  0.02328413  0.26917221  0.95426073     0.82700
N114        N  0.99577330  0.29266425  0.98512469    -0.78000
C115        C  0.96684280  0.27043464  0.01565621     0.82800
N116        N  0.96606208  0.22179066  0.01629315    -0.79700
C117        C  0.99344806  0.50345734  0.70057246     0.70700
N118        N  0.96576084  0.53628193  0.72451106    -0.78100
C119        C  0.96466506  0.53622708  0.77327810     0.82700
N120        N  0.98962227  0.50345184  0.79701268    -0.78000
C121        C  0.01513281  0.46985589  0.77574640     0.82800
N122        N  0.01764518  0.46956008  0.72715447    -0.79700
Zn123      Zn  0.09432585  0.35227193  0.84122459     1.49700
Zn124      Zn  0.14557385  0.35832858  0.93072897     1.49400
Zn125      Zn  0.20649514  0.39670609  0.86564828     1.49100
Zn126      Zn  0.12144115  0.45181429  0.88013621     1.49500
O127        O  0.13649769  0.39066020  0.87623184    -1.84100
O128        O  0.05614739  0.30376044  0.88354097    -0.74700
O129        O  0.18979469  0.30900975  0.91415923    -0.74500
O130        O  0.21235329  0.35875767  0.81160253    -0.74100
O131        O  0.08738948  0.32392826  0.95347837    -0.74700
O132        O  0.14084734  0.31983236  0.80288016    -0.74300
O133        O  0.24693286  0.36239132  0.91700743    -0.74900
O134        O  0.15454332  0.48748627  0.83144773    -0.74300
O135        O  0.18472555  0.40165150  0.97164183    -0.75100
O136        O  0.22966589  0.46150628  0.84201540    -0.74500
O137        O  0.16319421  0.46977094  0.93764683    -0.74900
O138        O  0.05365136  0.45675216  0.84998760    -0.74800
O139        O  0.05649605  0.39804922  0.79786485    -0.74600
C140        C  0.05829180  0.29890598  0.92843288     0.77200
C141        C  0.23056547  0.32252784  0.93029709     0.77700
C142        C  0.18503613  0.32860835  0.79209862     0.76600
C143        C  0.19948922  0.48961038  0.82190933     0.77000
C144        C  0.19127835  0.44534322  0.96503962     0.78100
C145        C  0.04340922  0.43955165  0.80893910     0.77200
C146        C  0.99842620  0.80596319  0.98655038     0.80300
N147        N  0.96740381  0.78189387  0.95568276    -0.78100
C148        C  0.96678541  0.73297084  0.95503585     0.82700
N149        N  0.99514747  0.70869452  0.98551627    -0.78000
C150        C  0.02602661  0.73010851  0.01515757     0.82800
N151        N  0.02896589  0.77874511  0.01457633    -0.79700
Zn152      Zn  0.84836591  0.68837682  0.87287406     1.49700
Zn153      Zn  0.83790308  0.58801729  0.82818936     1.49400
Zn154      Zn  0.89984303  0.59635352  0.90767880     1.49100
Zn155      Zn  0.78498265  0.61476531  0.90685194     1.49500
O156        O  0.84834448  0.62484134  0.88024292    -1.84100
O157        O  0.81516124  0.69217950  0.80998323    -0.74700
O158        O  0.89354384  0.58234577  0.78511248    -0.74500
O159        O  0.93232924  0.65825467  0.93545517    -0.74100
O160        O  0.78708712  0.61921636  0.79469317    -0.74700
O161        O  0.91280053  0.71891129  0.88845326    -0.74300
O162        O  0.93782363  0.56526209  0.84876480    -0.74900
O163        O  0.79676769  0.59628586  0.96920341    -0.74300
O164        O  0.81511213  0.52490267  0.84704452    -0.75100
O165        O  0.85759311  0.54882517  0.95098187    -0.74500
O166        O  0.75095603  0.55965546  0.87764273    -0.74900
O167        O  0.74429729  0.67051842  0.91861988    -0.74800
O168        O  0.81114652  0.71192033  0.92645191    -0.74600
C169        C  0.79043701  0.66238662  0.78516661     0.77200
C170        C  0.93150023  0.56453354  0.80334757     0.77700
C171        C  0.93555238  0.70240201  0.92431582     0.76600
C172        C  0.81566402  0.55636222  0.97044512     0.77000
C173        C  0.77006460  0.52432328  0.85725878     0.78100
C174        C  0.76914188  0.70118206  0.94080081     0.77200
Zn175      Zn  0.83458997  0.38533348  0.17428386     1.49700
Zn176      Zn  0.88433380  0.29445244  0.12638894     1.49400
Zn177      Zn  0.92397126  0.39450055  0.10833993     1.49100
Zn178      Zn  0.93367139  0.34918449  0.20471239     1.49500
O179        O  0.89236214  0.35705855  0.15106578    -1.84100
O180        O  0.78918861  0.33384268  0.18100251    -0.74700
O181        O  0.89616611  0.28714909  0.06004868    -0.74500
O182        O  0.86402862  0.42601386  0.07432971    -0.74100
O183        O  0.81827104  0.27315423  0.14472208    -0.74700
O184        O  0.80430614  0.42795700  0.12700607    -0.74300
O185        O  0.95638978  0.34013259  0.06444155    -0.74900
O186        O  0.96831905  0.40401565  0.22154539    -0.74300
O187        O  0.94111639  0.25712747  0.14446398    -0.75100
O188        O  0.96438086  0.44407298  0.15491363    -0.74500
O189        O  0.98633349  0.30420420  0.18900120    -0.74900
O190        O  0.89623310  0.35187720  0.26464837    -0.74800
O191        O  0.85196744  0.41110632  0.23635237    -0.74600
C192        C  0.79214383  0.31008194  0.14384701     0.77200
C193        C  0.93849325  0.30076672  0.04829340     0.77700
C194        C  0.81991177  0.43647564  0.08608757     0.76600
C195        C  0.97555021  0.44123011  0.19948692     0.77000
C196        C  0.98181405  0.26714745  0.16442972     0.78100
C197        C  0.87460599  0.39130341  0.27051335     0.77200
Zn198      Zn  0.15722299  0.69766691  0.07782865     1.49700
Zn199      Zn  0.22280297  0.65441792  0.12294937     1.49400
Zn200      Zn  0.12477539  0.67299759  0.17848669     1.49100
Zn201      Zn  0.10739104  0.61081884  0.09679845     1.49500
O202        O  0.15181104  0.65076577  0.12361065    -1.84100
O203        O  0.20141178  0.68338413  0.02689103    -0.74700
O204        O  0.24135224  0.64356427  0.18949505    -0.74500
O205        O  0.09541213  0.72880391  0.14851808    -0.74100
O206        O  0.25600347  0.70434908  0.07924257    -0.74700
O207        O  0.16165270  0.75507839  0.11097190    -0.74300
O208        O  0.18210446  0.68598143  0.21888087    -0.74900
O209        O  0.07354305  0.57712134  0.15667388    -0.74300
O210        O  0.24023486  0.59796252  0.09177982    -0.75100
O211        O  0.08171864  0.62636783  0.21647397    -0.74500
O212        O  0.16584842  0.57142244  0.06696174    -0.74900
O213        O  0.05640734  0.65726954  0.05503015    -0.74800
O214        O  0.10291715  0.71933942  0.04564655    -0.74600
C215        C  0.24167689  0.70260232  0.03620723     0.77200
C216        C  0.21149589  0.65160709  0.22232344     0.77700
C217        C  0.12039808  0.76232664  0.13042472     0.76600
C218        C  0.06657579  0.58711391  0.20060891     0.77000
C219        C  0.21367974  0.56919162  0.06919816     0.78100
C220        C  0.06252566  0.70022770  0.04061164     0.77200
C221        C  0.51333351  0.28354438  0.01544993     0.80300
N222        N  0.49941427  0.25686413  0.97642551    -0.78100
C223        C  0.49989274  0.20791475  0.97836553     0.82700
N224        N  0.51343463  0.18641601  0.01766729    -0.78000
C225        C  0.52846331  0.20994136  0.05545473     0.82800
N226        N  0.52888544  0.25868543  0.05495892    -0.79700
C227        C  0.50362343  0.67683945  0.00916702     0.80300
N228        N  0.48029714  0.70024357  0.04582451    -0.78100
C229        C  0.48064757  0.74863584  0.04667148     0.82700
N230        N  0.50071877  0.77234831  0.01198737    -0.78000
C231        C  0.51994864  0.75268516  0.97456939     0.82800
N232        N  0.52282568  0.70406229  0.97319494    -0.79700
C233        C  0.49571460  0.99126041  0.30828616     0.80300
N234        N  0.46806027  0.95968352  0.28258582    -0.78100
C235        C  0.47172605  0.95908399  0.23440005     0.82700
N236        N  0.50123504  0.98946133  0.21250868    -0.78000
C237        C  0.52804718  0.02049170  0.23681289     0.82800
N238        N  0.52582131  0.02134251  0.28480547    -0.79700
C239        C  0.20437395  0.01566866  0.98338571     0.80300
N240        N  0.22680695  0.04336765  0.94920825    -0.78100
C241        C  0.27774003  0.04404599  0.94554466     0.82700
N242        N  0.30465854  0.01839532  0.97536241    -0.78000
C243        C  0.28489440  0.99274305  0.00911860     0.82800
N244        N  0.23468797  0.99041441  0.01331989    -0.79700
C245        C  0.80011682  0.00077676  0.98698060     0.80300
N246        N  0.77731555  0.02517217  0.02188098    -0.78100
C247        C  0.72702973  0.02651429  0.02472813     0.82700
N248        N  0.69948309  0.00399953  0.99285236    -0.78000
C249        C  0.71949570  0.98015632  0.95739379     0.82800
N250        N  0.77036876  0.97798843  0.95404197    -0.79700
Zn251      Zn  0.65328508  0.80185750  0.88452898     1.49700
Zn252      Zn  0.64467458  0.90323010  0.84258898     1.49400
Zn253      Zn  0.55764442  0.84083001  0.85188170     1.49100
Zn254      Zn  0.61229812  0.87537106  0.94417400     1.49500
O255        O  0.61609534  0.85969596  0.88172668    -1.84100
O256        O  0.72004944  0.82225223  0.86122983    -0.74700
O257        O  0.59385696  0.93351658  0.79753095    -0.74500
O258        O  0.58240941  0.80196236  0.80298640    -0.74100
O259        O  0.68379549  0.86200577  0.80523909    -0.74700
O260        O  0.61101611  0.75114631  0.85274390    -0.74300
O261        O  0.52511375  0.89453220  0.81353361    -0.74900
O262        O  0.56436964  0.82272804  0.96294413    -0.74300
O263        O  0.69121329  0.94114235  0.88666657    -0.75100
O264        O  0.52741618  0.79269926  0.89914366    -0.74500
O265        O  0.64241342  0.94111048  0.94887382    -0.74900
O266        O  0.66321918  0.85116976  0.98720604    -0.74800
O267        O  0.66192218  0.78255109  0.95196101    -0.74600
C268        C  0.72196905  0.85326271  0.82903325     0.77200
C269        C  0.54827474  0.92567159  0.78973571     0.77700
C270        C  0.57931986  0.76211796  0.82137042     0.76600
C271        C  0.53992922  0.78945600  0.94269422     0.77000
C272        C  0.68309737  0.95260634  0.92908227     0.78100
C273        C  0.67050501  0.80762497  0.98828793     0.77200
C274        C  0.49984520  0.99683407  0.68614784     0.80300
N275        N  0.52009936  0.95950824  0.71084256    -0.78100
C276        C  0.52105451  0.95942284  0.75950246     0.82700
N277        N  0.50279823  0.99602523  0.78282311    -0.78000
C278        C  0.48441902  0.03360489  0.76040557     0.82800
N279        N  0.48310540  0.03451252  0.71180808    -0.79700
Zn280      Zn  0.42325042  0.09864048  0.89207437     1.49700
Zn281      Zn  0.42699094  0.19488459  0.89669427     1.49400
Zn282      Zn  0.43806869  0.16950269  0.80661235     1.49100
Zn283      Zn  0.33165948  0.15890407  0.86263775     1.49500
O284        O  0.40057858  0.14903444  0.85945822    -1.84100
O285        O  0.46437710  0.13600314  0.94608991    -0.74700
O286        O  0.42591560  0.25375331  0.86830299    -0.74500
O287        O  0.46582670  0.11372856  0.77467579    -0.74100
O288        O  0.49787774  0.18669790  0.89867080    -0.74700
O289        O  0.45554666  0.06285226  0.83423700    -0.74300
O290        O  0.48049950  0.22753142  0.81827929    -0.74900
O291        O  0.31714062  0.16280495  0.79416336    -0.74300
O292        O  0.38861598  0.19636373  0.95565087    -0.75100
O293        O  0.38602071  0.19113313  0.76643669    -0.74500
O294        O  0.32075138  0.20734933  0.91261864    -0.74900
O295        O  0.29049394  0.10630809  0.88934588    -0.74800
O296        O  0.35633513  0.06939594  0.91791633    -0.74600
C297        C  0.48745555  0.17519833  0.93945598     0.77200
C298        C  0.45909275  0.26178051  0.83840002     0.77700
C299        C  0.46747594  0.07221276  0.79113123     0.76600
C300        C  0.35167275  0.16144965  0.76435760     0.77000
C301        C  0.34356927  0.20684233  0.95249394     0.78100
C302        C  0.30903853  0.07445078  0.91502253     0.77200
Zn303      Zn  0.32510911  0.85764693  0.07793932     1.49700
Zn304      Zn  0.38713770  0.87092159  0.03201527     1.49400
Zn305      Zn  0.36243666  0.93748745  0.12657811     1.49100
Zn306      Zn  0.41980204  0.84697565  0.14396569     1.49500
O307        O  0.38969230  0.88614650  0.09635947    -1.84100
O308        O  0.32015185  0.82564200  0.01346799    -0.74700
O309        O  0.33723283  0.92822389  0.01824464    -0.74500
O310        O  0.30059202  0.92355895  0.15694954    -0.74100
O311        O  0.37878602  0.84662492  0.96446692    -0.74700
O312        O  0.26926812  0.90265892  0.08878670    -0.74300
O313        O  0.33629562  0.98107554  0.07635607    -0.74900
O314        O  0.45147486  0.88927271  0.19334809    -0.74300
O315        O  0.42786706  0.81114405  0.04893417    -0.75100
O316        O  0.40908970  0.95534427  0.17842617    -0.74500
O317        O  0.45642671  0.78860990  0.11813781    -0.74900
O318        O  0.36780165  0.81965301  0.17600308    -0.74800
O319        O  0.31206497  0.80549873  0.11971061    -0.74600
C320        C  0.34125006  0.82203983  0.97373008     0.77200
C321        C  0.32041457  0.96561345  0.03672900     0.77700
C322        C  0.26546388  0.92480747  0.12727968     0.76600
C323        C  0.44075494  0.93200452  0.20251557     0.77000
C324        C  0.45078468  0.78124605  0.07431546     0.78100
C325        C  0.33048652  0.79855905  0.16006336     0.77200
Zn326      Zn  0.65345863  0.09372720  0.21421883     1.49700
Zn327      Zn  0.71521184  0.11836764  0.13822410     1.49400
Zn328      Zn  0.60568335  0.08371147  0.11372488     1.49100
Zn329      Zn  0.61562636  0.17333525  0.16309039     1.49500
O330        O  0.64707696  0.11588185  0.15176845    -1.84100
O331        O  0.69452492  0.03935142  0.21248910    -0.74700
O332        O  0.72761368  0.08172252  0.08404751    -0.74500
O333        O  0.56501188  0.04720276  0.16547324    -0.74100
O334        O  0.75711200  0.07893407  0.18409004    -0.74700
O335        O  0.59170306  0.07359133  0.23575236    -0.74300
O336        O  0.65522590  0.04766419  0.06905206    -0.74900
O337        O  0.55450832  0.19243995  0.13334268    -0.74300
O338        O  0.72939111  0.18246957  0.11338698    -0.75100
O339        O  0.56858229  0.13910121  0.07905737    -0.74500
O340        O  0.65899868  0.21695268  0.13125223    -0.74900
O341        O  0.60805642  0.16914129  0.23024742    -0.74800
O342        O  0.67988118  0.14619427  0.25311935    -0.74600
C343        C  0.73941683  0.04194024  0.20330308     0.77200
C344        C  0.70164159  0.05300251  0.06127798     0.77700
C345        C  0.56261477  0.04925221  0.21095429     0.76600
C346        C  0.55123310  0.17929358  0.09139915     0.77000
C347        C  0.69945458  0.21669713  0.10998095     0.78100
C348        C  0.65099793  0.17932932  0.24250079     0.77200
C349        C  0.51764220  0.48894613  0.21109932     0.80300
N350        N  0.55022229  0.46300983  0.23894926    -0.78100
C351        C  0.54900487  0.46559427  0.28780418     0.82700
N352        N  0.51610552  0.49388584  0.30789600    -0.78000
C353        C  0.48525055  0.52079723  0.28255642     0.82800
N354        N  0.48565781  0.51847224  0.23404784    -0.79700
C355        C  0.80006203  0.51033798  0.51187796     0.80300
N356        N  0.76987490  0.47541942  0.49441610    -0.78100
C357        C  0.71953954  0.47784180  0.49886321     0.82700
N358        N  0.69985899  0.51351945  0.52207179    -0.78000
C359        C  0.72784370  0.54692065  0.54208728     0.82800
N360        N  0.77830228  0.54564344  0.53749494    -0.79700
Zn361      Zn  0.59729847  0.39886283  0.42530622     1.49700
Zn362      Zn  0.69914893  0.35366314  0.44827429     1.49400
Zn363      Zn  0.62773796  0.30529760  0.38256945     1.49100
Zn364      Zn  0.67698858  0.40221370  0.35830057     1.49500
O365        O  0.64730047  0.36335429  0.40437094    -1.84100
O366        O  0.64565080  0.44662683  0.46156451    -0.74700
O367        O  0.69652442  0.29054703  0.47757708    -0.74500
O368        O  0.55967644  0.28732995  0.40175338    -0.74100
O369        O  0.69841675  0.39852287  0.49714805    -0.74700
O370        O  0.55455121  0.34331440  0.45631007    -0.74300
O371        O  0.66304666  0.25519403  0.41581872    -0.74900
O372        O  0.71014907  0.36142354  0.31630937    -0.74300
O373        O  0.76266760  0.37382006  0.41924820    -0.75100
O374        O  0.64978222  0.30781557  0.31663421    -0.74500
O375        O  0.73150682  0.43876919  0.38786141    -0.74900
O376        O  0.62781216  0.43554080  0.31415392    -0.74800
O377        O  0.56555305  0.42847236  0.36292448    -0.74600
C378        C  0.68592953  0.43934226  0.48508938     0.77200
C379        C  0.68526592  0.25340010  0.45538341     0.77700
C380        C  0.54313389  0.30174215  0.44083411     0.76600
C381        C  0.68574667  0.32907482  0.29689662     0.77000
C382        C  0.76841025  0.41535318  0.40288621     0.78100
C383        C  0.58241560  0.44057725  0.32238406     0.77200
C384        C  0.48504079  0.19257700  0.49512848     0.80300
N385        N  0.51245407  0.22081966  0.46569442    -0.78100
C386        C  0.51148937  0.26937528  0.46949526     0.82700
N387        N  0.48341894  0.28920232  0.50275003    -0.78000
C388        C  0.45582304  0.26290490  0.53187003     0.82800
N389        N  0.45681720  0.21460723  0.52816890    -0.79700
C390        C  0.51279434  0.80462652  0.49710731     0.80300
N391        N  0.49560092  0.77716111  0.45981469    -0.78100
C392        C  0.49773978  0.72863211  0.46246603     0.82700
N393        N  0.51629181  0.70878544  0.50115006    -0.78000
C394        C  0.53329897  0.73304167  0.53753169     0.82800
N395        N  0.53241581  0.78155303  0.53610652    -0.79700
Zn396      Zn  0.31155583  0.63671231  0.39268927     1.49700
Zn397      Zn  0.36389959  0.55702591  0.37690339     1.49400
Zn398      Zn  0.42365165  0.64663544  0.35106659     1.49100
Zn399      Zn  0.39161907  0.63731266  0.45273498     1.49500
O400        O  0.37834785  0.61943913  0.39183017    -1.84100
O401        O  0.26348745  0.58410841  0.39652102    -0.74700
O402        O  0.41907974  0.53033957  0.33558369    -0.74500
O403        O  0.37978892  0.67241053  0.30513258    -0.74100
O404        O  0.30250335  0.55154559  0.33833234    -0.74700
O405        O  0.30298170  0.65872838  0.32959256    -0.74300
O406        O  0.46022932  0.59493957  0.31403643    -0.74900
O407        O  0.46258900  0.65353809  0.45178305    -0.74300
O408        O  0.33556266  0.53452839  0.43804015    -0.75100
O409        O  0.46006490  0.70004111  0.38895477    -0.74500
O410        O  0.34289954  0.59588937  0.48707158    -0.74900
O411        O  0.36908906  0.69991964  0.47019362    -0.74800
O412        O  0.29638800  0.68923898  0.43720114    -0.74600
C413        C  0.26234236  0.56056224  0.35875771     0.77200
C414        C  0.45193730  0.55067765  0.31060512     0.77700
C415        C  0.33354296  0.67270534  0.29953388     0.76600
C416        C  0.47262798  0.69311040  0.43192628     0.77000
C417        C  0.32079048  0.55856892  0.47330384     0.78100
C418        C  0.32552084  0.71277826  0.46351838     0.77200
C419        C  0.20266785  0.50430035  0.51434951     0.80300
N420        N  0.22568260  0.46737998  0.53695470    -0.78100
C421        C  0.27599729  0.46758900  0.54368780     0.82700
N422        N  0.30274123  0.50299817  0.52836775    -0.78000
C423        C  0.28321349  0.53706225  0.50273896     0.82800
N424        N  0.23277129  0.53821829  0.49462534    -0.79700
C425        C  0.50307261  0.47325491  0.81685738     0.80300
N426        N  0.53268482  0.50071295  0.78853939    -0.78100
C427        C  0.52897434  0.49895263  0.73979391     0.82700
N428        N  0.49623641  0.46973561  0.71965133    -0.78000
C429        C  0.46682379  0.44192140  0.74503871     0.82800
N430        N  0.46951336  0.44399386  0.79392617    -0.79700
Zn431      Zn  0.33894360  0.28127646  0.63167784     1.49700
Zn432      Zn  0.33225851  0.37066108  0.70445846     1.49400
Zn433      Zn  0.38922685  0.38277518  0.61426812     1.49100
Zn434      Zn  0.27247856  0.36670537  0.61408288     1.49500
O435        O  0.33687833  0.34899295  0.64094559    -1.84100
O436        O  0.34855524  0.25489075  0.69814897    -0.74700
O437        O  0.39303342  0.39654501  0.73700634    -0.74500
O438        O  0.42498965  0.33313543  0.56967525    -0.74100
O439        O  0.30704414  0.31257323  0.72833656    -0.74700
O440        O  0.39556305  0.26313965  0.59118798    -0.74300
O441        O  0.43269698  0.41215769  0.67133425    -0.74900
O442        O  0.28901755  0.38775314  0.55403546    -0.74300
O443        O  0.29078184  0.42508449  0.70555255    -0.75100
O444        O  0.34709231  0.43442607  0.58106481    -0.74500
O445        O  0.24297686  0.42626593  0.64231877    -0.74900
O446        O  0.22963761  0.31856891  0.58618238    -0.74800
O447        O  0.28518194  0.26259940  0.58551736    -0.74600
C448        C  0.34428959  0.28642561  0.72958479     0.77200
C449        C  0.42942830  0.41459251  0.71672094     0.77700
C450        C  0.42401133  0.28780811  0.56610286     0.76600
C451        C  0.30519087  0.42817933  0.56057520     0.77000
C452        C  0.26013702  0.44594919  0.67916160     0.78100
C453        C  0.24819822  0.28293767  0.56676233     0.77200
Zn454      Zn  0.54433786  0.62049353  0.64665223     1.49700
Zn455      Zn  0.62086046  0.66485662  0.71586823     1.49400
Zn456      Zn  0.64665786  0.57441182  0.66772829     1.49100
Zn457      Zn  0.65050449  0.66170544  0.61245366     1.49500
O458        O  0.61273406  0.62985372  0.65840180    -1.84100
O459        O  0.49857244  0.64672405  0.69293036    -0.74700
O460        O  0.66122752  0.62562565  0.76273767    -0.74500
O461        O  0.60221399  0.53444339  0.70952477    -0.74100
O462        O  0.55641005  0.66403379  0.74495741    -0.74700
O463        O  0.53118692  0.55252341  0.67373056    -0.74300
O464        O  0.70095835  0.59629992  0.70464861    -0.74900
O465        O  0.69519808  0.61850797  0.57302804    -0.74300
O466        O  0.63688930  0.73190404  0.69363564    -0.75100
O467        O  0.67917281  0.55101725  0.60931893    -0.74500
O468        O  0.69285430  0.70422762  0.64763723    -0.74900
O469        O  0.60192225  0.70406952  0.57888581    -0.74800
O470        O  0.52997055  0.66856381  0.59163966    -0.74600
C471        C  0.51145784  0.65784878  0.73414481     0.77200
C472        C  0.68709457  0.59272172  0.74626954     0.77700
C473        C  0.55561038  0.53086506  0.70664713     0.76600
C474        C  0.70135347  0.57433461  0.57745169     0.77000
C475        C  0.66648160  0.73823733  0.65991137     0.78100
C476        C  0.55561348  0.70241447  0.57383810     0.77200
C477        C  0.28992049  0.98623048  0.48198739     0.80300
N478        N  0.26574505  0.96176343  0.44601539    -0.78100
C479        C  0.21461958  0.96104721  0.44296866     0.82700
N480        N  0.18881571  0.98538021  0.47363730    -0.78000
C481        C  0.21004221  0.00970514  0.50802978     0.82800
N482        N  0.26067043  0.01025176  0.51311532    -0.79700
C483        C  0.70019574  0.01801136  0.49349539     0.80300
N484        N  0.72604895  0.04562742  0.46147891    -0.78100
C485        C  0.77724581  0.04707777  0.46327223     0.82700
N486        N  0.80101277  0.02218722  0.49589522    -0.78000
C487        C  0.77782063  0.99614389  0.52731537     0.82800
N488        N  0.72740465  0.99298250  0.52619231    -0.79700
C489        C  0.99379859  0.31182205  0.50322124     0.80300
N490        N  0.96882299  0.29189628  0.46581265    -0.78100
C491        C  0.96101392  0.24433028  0.46405165     0.82700
N492        N  0.97862206  0.21671922  0.49829958    -0.78000
C493        C  0.00445126  0.23343537  0.53498776     0.82800
N494        N  0.01230749  0.28173079  0.53807571    -0.79700
C495        C  0.00165331  0.01063834  0.19195666     0.80300
N496        N  0.00644723  0.96906242  0.21745923    -0.78100
C497        C  0.00774338  0.96934410  0.26632696     0.82700
N498        N  0.00503999  0.00933488  0.28896949    -0.78000
C499        C  0.99915450  0.05011737  0.26773562     0.82800
N500        N  0.99739637  0.05193338  0.21845241    -0.79700
C501        C  0.99063604  0.69518703  0.50457548     0.80300
N502        N  0.01226695  0.71941858  0.46865812    -0.78100
C503        C  0.00818664  0.76739262  0.46482093     0.82700
N504        N  0.98194957  0.79105304  0.49629832    -0.78000
C505        C  0.95984165  0.76874428  0.53199962     0.82800
N506        N  0.96410284  0.72057539  0.53673154    -0.79700
Zn507      Zn  0.10740651  0.78805905  0.35745817     1.49700
Zn508      Zn  0.05785830  0.85447012  0.28858421     1.49400
Zn509      Zn  0.07658260  0.89062955  0.38673487     1.49100
Zn510      Zn  0.16781520  0.87838609  0.32876029     1.49500
O511        O  0.10310625  0.85449391  0.34117271    -1.84100
O512        O  0.09885733  0.74511072  0.30220316    -0.74700
O513        O  0.99938775  0.88979445  0.28962489    -0.74500
O514        O  0.03723281  0.83968900  0.42847119    -0.74100
O515        O  0.03502362  0.78956479  0.29805390    -0.74700
O516        O  0.05830397  0.76962913  0.40011889    -0.74300
O517        O  0.04227810  0.93617868  0.33686712    -0.74900
O518        O  0.19619073  0.92922123  0.36720863    -0.74300
O519        O  0.09061851  0.89195342  0.23554760    -0.75100
O520        O  0.13950094  0.92110457  0.42141307    -0.74500
O521        O  0.16507872  0.90798971  0.26557104    -0.74900
O522        O  0.21561499  0.83474550  0.35872151    -0.74800
O523        O  0.16595772  0.78589709  0.39542070    -0.74600
C524        C  0.06812382  0.76765856  0.27777594     0.77200
C525        C  0.01638962  0.92965704  0.29885331     0.77700
C526        C  0.03511479  0.79414170  0.42893607     0.76600
C527        C  0.18275375  0.93482961  0.40890448     0.77000
C528        C  0.13121201  0.91446785  0.23465308     0.78100
C529        C  0.20504165  0.80979033  0.39447271     0.77200
Zn530      Zn  0.93972103  0.16665101  0.33403147     1.49700
Zn531      Zn  0.84314432  0.11688120  0.29364489     1.49400
Zn532      Zn  0.90622344  0.06262753  0.36713158     1.49100
Zn533      Zn  0.85260113  0.16037992  0.38838025     1.49500
O534        O  0.88806721  0.12244359  0.34804605    -1.84100
O535        O  0.90387261  0.20698410  0.29109635    -0.74700
O536        O  0.84326430  0.04882318  0.27467565    -0.74500
O537        O  0.97793918  0.07383026  0.34636944    -0.74100
O538        O  0.87806054  0.15315450  0.24218453    -0.74700
O539        O  0.98672732  0.12972784  0.29377104    -0.74300
O540        O  0.89068626  0.00955853  0.32484992    -0.74900
O541        O  0.80546832  0.11560169  0.42239710    -0.74300
O542        O  0.77463945  0.13862860  0.31733873    -0.75100
O543        O  0.85166525  0.05126521  0.41895972    -0.74500
O544        O  0.82093827  0.19612793  0.33741825    -0.74900
O545        O  0.89348383  0.20401679  0.43024097    -0.74800
O546        O  0.96294155  0.20505096  0.39089405    -0.74600
C547        C  0.90858707  0.18544659  0.25283000     0.77200
C548        C  0.86319837  0.01061122  0.28881674     0.77700
C549        C  0.98788201  0.08675274  0.30364634     0.76600
C550        C  0.81182954  0.07240419  0.43149457     0.77000
C551        C  0.78051144  0.17585360  0.34124666     0.78100
C552        C  0.93715043  0.21899674  0.42509022     0.77200
C553        C  0.01038662  0.00251202  0.80255739     0.80300
N554        N  0.98731378  0.96837995  0.77575801    -0.78100
C555        C  0.99157991  0.96852283  0.72759771     0.82700
N556        N  0.01773752  0.00241520  0.70703625    -0.78000
C557        C  0.04032744  0.03641478  0.73156175     0.82800
N558        N  0.03727401  0.03675201  0.77984207    -0.79700
Zn559      Zn  0.81811911  0.87535075  0.65403324     1.49700
Zn560      Zn  0.87182056  0.95133223  0.64448129     1.49400
Zn561      Zn  0.91640397  0.84944716  0.65588159     1.49100
Zn562      Zn  0.84632198  0.87218718  0.56737753     1.49500
O563        O  0.87290073  0.89046888  0.62448887    -1.84100
O564        O  0.83290505  0.88608206  0.72163827    -0.74700
O565        O  0.94225333  0.96235564  0.65935572    -0.74500
O566        O  0.87638736  0.80067911  0.68982661    -0.74100
O567        O  0.85055361  0.96033752  0.71034537    -0.74700
O568        O  0.81496836  0.81026428  0.63969276    -0.74300
O569        O  0.95509804  0.89568295  0.70041288    -0.74900
O570        O  0.89338420  0.82036463  0.54433011    -0.74300
O571        O  0.82335097  0.98057797  0.59720206    -0.75100
O572        O  0.94761047  0.80965313  0.60404699    -0.74500
O573        O  0.83100363  0.93223681  0.53530368    -0.74900
O574        O  0.77558590  0.85289997  0.56983194    -0.74800
O575        O  0.75628355  0.90174553  0.62655627    -0.74600
C576        C  0.84441920  0.92602777  0.73796817     0.77200
C577        C  0.96138119  0.94014466  0.69467138     0.77700
C578        C  0.83665068  0.78650776  0.67036473     0.76600
C579        C  0.93093603  0.79944039  0.56277856     0.77000
C580        C  0.81054932  0.96700330  0.55577595     0.78100
C581        C  0.74303652  0.87531778  0.59261327     0.77200
Zn582      Zn  0.09900691  0.11798677  0.53913602     1.49700
Zn583      Zn  0.19124220  0.13839232  0.57833696     1.49400
Zn584      Zn  0.08986964  0.15434234  0.64115932     1.49100
Zn585      Zn  0.15221521  0.06825607  0.63159983     1.49500
O586        O  0.12703400  0.12011661  0.59867026    -1.84100
O587        O  0.12278131  0.16775225  0.49592113    -0.74700
O588        O  0.20085167  0.19643275  0.61307429    -0.74500
O589        O  0.04844297  0.20288805  0.60384259    -0.74100
O590        O  0.19913749  0.14949332  0.50999514    -0.74700
O591        O  0.03289406  0.15395715  0.54461251    -0.74300
O592        O  0.14035968  0.19212310  0.66648364    -0.74900
O593        O  0.10471327  0.04551592  0.67929508    -0.74300
O594        O  0.24764449  0.09742511  0.59705573    -0.75100
O595        O  0.06045746  0.10977503  0.69335969    -0.74500
O596        O  0.21471924  0.08010780  0.66467084    -0.74900
O597        O  0.17753435  0.02870978  0.58140495    -0.74800
O598        O  0.14279243  0.06201387  0.51704864    -0.74600
C599        C  0.16747344  0.17214837  0.48623317     0.77200
C600        C  0.17945004  0.20964924  0.65012661     0.77700
C601        C  0.02954934  0.19528029  0.56332029     0.76600
C602        C  0.07167006  0.06680230  0.70237929     0.77000
C603        C  0.25239279  0.08363154  0.63911618     0.78100
C604        C  0.17547926  0.03546833  0.53725532     0.77200
C605        C  0.68412145  0.82344429  0.55765203    -0.01800
C606        C  0.69059980  0.86380912  0.58444749     0.07900
C607        C  0.66104549  0.86713115  0.62397076    -0.01900
C608        C  0.64951066  0.82564206  0.64855763    -0.01900
C609        C  0.66614930  0.78190616  0.63069131     0.08000
C610        C  0.68129625  0.78099775  0.58253485    -0.02100
Br611      Br  0.70410418  0.72601580  0.54993819    -0.00700
Br612      Br  0.69862773  0.82637122  0.49157851    -0.00700
Br613      Br  0.61599119  0.83133286  0.70698070    -0.00700
Br614      Br  0.64384944  0.92834261  0.64642206    -0.00700
C615        C  0.25829837  0.23667500  0.49104795    -0.01800
C616        C  0.22908492  0.26615535  0.52013759     0.07900
C617        C  0.18295771  0.28060396  0.50059032    -0.01900
C618        C  0.16152967  0.25268462  0.46479636    -0.01900
C619        C  0.18414372  0.21001858  0.45460486     0.08000
C620        C  0.23520390  0.21270337  0.45343506    -0.02100
Br621      Br  0.26916332  0.16811107  0.41534808    -0.00700
Br622      Br  0.32777815  0.22830016  0.50028326    -0.00700
Br623      Br  0.09901760  0.26648272  0.43613627    -0.00700
Br624      Br  0.15206528  0.33908223  0.51613448    -0.00700
C625        C  0.26093854  0.75531742  0.50047051    -0.01800
C626        C  0.30861641  0.75685679  0.48343993     0.07900
C627        C  0.32309687  0.79714752  0.45885225    -0.01900
C628        C  0.28762216  0.82209029  0.43321150    -0.01900
C629        C  0.23869096  0.80611626  0.43534104     0.08000
C630        C  0.22458941  0.77971019  0.47543883    -0.02100
Br631      Br  0.15725764  0.77429667  0.49503647    -0.00700
Br632      Br  0.24492007  0.70932682  0.54748751    -0.00700
Br633      Br  0.30778989  0.87300345  0.39274418    -0.00700
Br634      Br  0.39090021  0.81028125  0.45027475    -0.00700
C635        C  0.75943423  0.21751691  0.46397711    -0.01800
C636        C  0.70961036  0.20921686  0.46878379     0.07900
C637        C  0.69182429  0.16981182  0.44443611    -0.01900
C638        C  0.71197955  0.15909738  0.40011515    -0.01900
C639        C  0.75230511  0.18671383  0.38423509     0.08000
C640        C  0.77482347  0.21834356  0.41728815    -0.02100
Br641      Br  0.81243983  0.27256169  0.39839179    -0.00700
Br642      Br  0.79421518  0.25180080  0.51249953    -0.00700
Br643      Br  0.68377662  0.10865693  0.36378495    -0.00700
Br644      Br  0.63628987  0.13775811  0.46953253    -0.00700
C645        C  0.76222199  0.97745988  0.26058179    -0.01800
C646        C  0.77078942  0.00249119  0.21776653     0.07900
C647        C  0.81362477  0.99171038  0.19256165    -0.01900
C648        C  0.85145237  0.96834772  0.21683985    -0.01900
C649        C  0.84882334  0.96616157  0.26579945     0.08000
C650        C  0.80233369  0.95405911  0.28186952    -0.02100
Br651      Br  0.79764721  0.92298664  0.34162768    -0.00700
Br652      Br  0.70154025  0.98060591  0.29448149    -0.00700
Br653      Br  0.90123965  0.93421868  0.18543355    -0.00700
Br654      Br  0.82060469  0.00729359  0.12740079    -0.00700
C655        C  0.73389893  0.28185895  0.24733100    -0.01800
C656        C  0.69754416  0.31608440  0.24955096     0.07900
C657        C  0.65461527  0.31005764  0.22311872    -0.01900
C658        C  0.63585624  0.26437125  0.22256604    -0.01900
C659        C  0.66890384  0.22672481  0.23294046     0.08000
C660        C  0.71965390  0.23653697  0.23535668    -0.02100
Br661      Br  0.76907424  0.19072580  0.22185110    -0.00700
Br662      Br  0.79684037  0.29247259  0.27663392    -0.00700
Br663      Br  0.56525173  0.25782816  0.21739085    -0.00700
Br664      Br  0.61174917  0.36362375  0.21643516    -0.00700
C665        C  0.22006206  0.98065747  0.17805819    -0.01800
C666        C  0.22002579  0.94962180  0.13919589     0.07900
C667        C  0.17430055  0.93452537  0.12055838    -0.01900
C668        C  0.13386142  0.93581612  0.15018516    -0.01900
C669        C  0.14114154  0.94898909  0.19706007     0.08000
C670        C  0.17868717  0.98141862  0.20656207    -0.02100
Br671      Br  0.17650306  0.01816232  0.26329087    -0.00700
Br672      Br  0.27671340  0.01799323  0.19495703    -0.00700
Br673      Br  0.07011482  0.92049403  0.12742117    -0.00700
Br674      Br  0.16719851  0.90465649  0.05993787    -0.00700
C675        C  0.29879698  0.77659445  0.23471024    -0.01800
C676        C  0.31204579  0.76274417  0.18931811     0.07900
C677        C  0.32747534  0.71670059  0.17945681    -0.01900
C678        C  0.32915969  0.68398508  0.21560973    -0.01900
C679        C  0.31539811  0.69801171  0.26046700     0.08000
C680        C  0.29986468  0.74355025  0.27026157    -0.02100
Br681      Br  0.29536926  0.76360686  0.33454054    -0.00700
Br682      Br  0.29439951  0.84276173  0.25129440    -0.00700
Br683      Br  0.35462077  0.62141615  0.20552006    -0.00700
Br684      Br  0.36054773  0.70220835  0.12178208    -0.00700
C685        C  0.36571893  0.13163170  0.68259493    -0.01800
C686        C  0.35258091  0.12325783  0.72951474     0.07900
C687        C  0.33008940  0.08014781  0.74024205    -0.01900
C688        C  0.30439121  0.05641425  0.70474840    -0.01900
C689        C  0.30147669  0.07727055  0.66007506     0.08000
C690        C  0.33928623  0.10831798  0.64691404    -0.02100
Br691      Br  0.35180878  0.12173867  0.58176270    -0.00700
Br692      Br  0.41986512  0.17188573  0.66754385    -0.00700
Br693      Br  0.26732936  0.00048372  0.71828220    -0.00700
Br694      Br  0.33429233  0.05434198  0.80237250    -0.00700
C695        C  0.38040123  0.32494269  0.80248979    -0.01800
C696        C  0.38712001  0.30187166  0.75846769     0.07900
C697        C  0.43601962  0.30041897  0.74125616    -0.01900
C698        C  0.47518921  0.30976634  0.77262826    -0.01900
C699        C  0.46409308  0.31001055  0.82010236     0.08000
C700        C  0.42204071  0.33563435  0.83039832    -0.02100
Br701      Br  0.41558249  0.35959465  0.89297860    -0.00700
Br702      Br  0.31758383  0.34082369  0.82646566    -0.00700
Br703      Br  0.54269943  0.30869742  0.75472595    -0.00700
Br704      Br  0.45081156  0.29336359  0.67667870    -0.00700
C705        C  0.80241641  0.95827259  0.80049380    -0.01800
C706        C  0.84389968  0.93327940  0.78906700     0.07900
C707        C  0.85347322  0.89290687  0.81586068    -0.01900
C708        C  0.81343677  0.86651967  0.83211556    -0.01900
C709        C  0.76541413  0.88375437  0.82308048     0.08000
C710        C  0.76016506  0.93138470  0.80714493    -0.02100
Br711      Br  0.70043366  0.95884751  0.78255619    -0.00700
Br712      Br  0.79998643  0.02416112  0.78520228    -0.00700
Br713      Br  0.82533831  0.80503250  0.85796267    -0.00700
Br714      Br  0.91913913  0.86895588  0.81790938    -0.00700
C715        C  0.52719056  0.68916030  0.83497024    -0.01800
C716        C  0.53414110  0.73369022  0.81284186     0.07900
C717        C  0.49566913  0.74951503  0.78137809    -0.01900
C718        C  0.46186023  0.71610752  0.76400220    -0.01900
C719        C  0.47470991  0.66941555  0.76976890     0.08000
C720        C  0.49167166  0.65868204  0.81514870    -0.02100
Br721      Br  0.47842986  0.59747040  0.83958405    -0.00700
Br722      Br  0.56845256  0.66613192  0.88523809    -0.00700
Br723      Br  0.41010438  0.73100300  0.71990298    -0.00700
Br724      Br  0.48895428  0.81239890  0.75753979    -0.00700
C725        C  0.05599040  0.81212005  0.15525965    -0.01800
C726        C  0.10602619  0.80953501  0.14345284     0.07900
C727        C  0.13950998  0.82021958  0.17922286    -0.01900
C728        C  0.12911671  0.80150168  0.22350368    -0.01900
C729        C  0.08094739  0.78536747  0.23224922     0.08000
C730        C  0.04292091  0.79491046  0.19938010    -0.02100
Br731      Br  0.97570209  0.77653537  0.21077023    -0.00700
Br732      Br  0.00617791  0.82018988  0.10808215    -0.00700
Br733      Br  0.18110308  0.79598779  0.26839280    -0.00700
Br734      Br  0.20597846  0.83354500  0.16293626    -0.00700
C735        C  0.34180386  0.74125807  0.95403862    -0.01800
C736        C  0.32252727  0.78539678  0.94208411     0.07900
C737        C  0.27143368  0.78759755  0.93808510    -0.01900
C738        C  0.24344420  0.75963224  0.96866169    -0.01900
C739        C  0.26775578  0.72565974  0.99737229     0.08000
C740        C  0.31576452  0.71253740  0.98551149    -0.02100
Br741      Br  0.34302015  0.65432488  0.00803614    -0.00700
Br742      Br  0.40397981  0.72334767  0.92966837    -0.00700
Br743      Br  0.17399339  0.77082867  0.97253759    -0.00700
Br744      Br  0.24347096  0.83991909  0.90460281    -0.00700
C745        C  0.21433536  0.56746142  0.25037565    -0.01800
C746        C  0.20537959  0.61581645  0.25967121     0.07900
C747        C  0.18842721  0.62790528  0.30483743    -0.01900
C748        C  0.18439448  0.59284878  0.33911749    -0.01900
C749        C  0.21497535  0.55402471  0.33393010     0.08000
C750        C  0.21852150  0.53607069  0.28843699    -0.02100
Br751      Br  0.24206568  0.47310137  0.28066409    -0.00700
Br752      Br  0.22203050  0.54313291  0.18786922    -0.00700
Br753      Br  0.15551495  0.60528099  0.39931046    -0.00700
Br754      Br  0.18498146  0.69116400  0.32556468    -0.00700
C755        C  0.96274225  0.16795785  0.18282086    -0.01800
C756        C  0.95536058  0.19019134  0.22729772     0.07900
C757        C  0.99687815  0.21641620  0.24655081    -0.01900
C758        C  0.03503320  0.22807295  0.21551124    -0.01900
C759        C  0.01979791  0.22956719  0.16884999     0.08000
C760        C  0.00136290  0.18571956  0.15554195    -0.02100
Br761      Br  0.03921226  0.14688809  0.11611332    -0.00700
Br762      Br  0.92030674  0.12105373  0.15533894    -0.00700
Br763      Br  0.09284129  0.26264279  0.23359894    -0.00700
Br764      Br  0.99962625  0.24757752  0.30609773    -0.00700
C765        C  0.78299945  0.30154843  0.05953563    -0.01800
C766        C  0.77310725  0.32990732  0.09858807     0.07900
C767        C  0.72288330  0.34003306  0.10224857    -0.01900
C768        C  0.69088105  0.30195800  0.09540986    -0.01900
C769        C  0.71197267  0.25854581  0.08274520     0.08000
C770        C  0.75521498  0.26021094  0.05625489    -0.02100
Br771      Br  0.77239848  0.21046036  0.01437773    -0.00700
Br772      Br  0.81147059  0.32847831  0.00454844    -0.00700
Br773      Br  0.62167450  0.30869415  0.10421528    -0.00700
Br774      Br  0.70038680  0.39529486  0.13343811    -0.00700
C775        C  0.84995492  0.45915092  0.32064536    -0.01800
C776        C  0.87224684  0.41434742  0.31705380     0.07900
C777        C  0.88320892  0.39002960  0.35923309    -0.01900
C778        C  0.85719281  0.40200789  0.39968723    -0.01900
C779        C  0.81834900  0.43388392  0.39503033     0.08000
C780        C  0.82302942  0.46923030  0.36092523    -0.02100
Br781      Br  0.78635951  0.52666693  0.36593923    -0.00700
Br782      Br  0.85386329  0.50548304  0.27100887    -0.00700
Br783      Br  0.86975967  0.37272092  0.45953978    -0.00700
Br784      Br  0.93206631  0.34171332  0.36229168    -0.00700
C785        C  0.74880098  0.72139596  0.74246561    -0.01800
C786        C  0.77122736  0.67770335  0.74068808     0.07900
C787        C  0.80102793  0.66578884  0.70244013    -0.01900
C788        C  0.82212371  0.70202185  0.67675508    -0.01900
C789        C  0.80970249  0.74789237  0.68833141     0.08000
C790        C  0.76931103  0.75758209  0.71667870    -0.02100
Br791      Br  0.74549477  0.82032118  0.72319075    -0.00700
Br792      Br  0.70324989  0.73383510  0.79174000    -0.00700
Br793      Br  0.86987536  0.68987281  0.62898436    -0.00700
Br794      Br  0.82519230  0.60306028  0.69474867    -0.00700
C795        C  0.77268369  0.76566644  0.00220424    -0.01800
C796        C  0.75037821  0.72395762  0.98356981     0.07900
C797        C  0.70732344  0.70691424  0.00588653    -0.01900
C798        C  0.68099360  0.73847089  0.03380654    -0.01900
C799        C  0.69363411  0.78580433  0.02994543     0.08000
C800        C  0.74382419  0.79485905  0.03028797    -0.02100
Br801      Br  0.76727531  0.85354353  0.05525550    -0.00700
Br802      Br  0.83853899  0.78608267  0.98846410    -0.00700
Br803      Br  0.61820801  0.72320193  0.05915448    -0.00700
Br804      Br  0.68167960  0.64445865  0.99634325    -0.00700
C805        C  0.74944484  0.48168290  0.78828134    -0.01800
C806        C  0.73763005  0.48835011  0.83551888     0.07900
C807        C  0.68827408  0.49907095  0.84139565    -0.01900
C808        C  0.66956792  0.53580375  0.81323559    -0.01900
C809        C  0.69564959  0.54792567  0.77194771     0.08000
C810        C  0.72978120  0.51393499  0.75545319    -0.02100
Br811      Br  0.74655897  0.50702548  0.69028424    -0.00700
Br812      Br  0.80183398  0.44001458  0.77264634    -0.00700
Br813      Br  0.61199344  0.56789164  0.83261212    -0.00700
Br814      Br  0.65561256  0.47412099  0.89467093    -0.00700
C815        C  0.22236549  0.23094759  0.72008226    -0.01800
C816        C  0.20013824  0.24571522  0.67777873     0.07900
C817        C  0.17899912  0.29025676  0.67284504    -0.01900
C818        C  0.18427420  0.32193036  0.70917945    -0.01900
C819        C  0.20296479  0.30574920  0.75224586     0.08000
C820        C  0.22289448  0.26105958  0.75823698    -0.02100
Br821      Br  0.24175593  0.23901888  0.82025232    -0.00700
Br822      Br  0.23391037  0.16513909  0.73030465    -0.00700
Br823      Br  0.15306567  0.38264198  0.70497848    -0.00700
Br824      Br  0.12764154  0.30128020  0.62647067    -0.00700
C825        C  0.26855127  0.21348008  0.99479666    -0.01800
C826        C  0.31862101  0.22362248  0.99438317     0.07900
C827        C  0.33157573  0.26971582  0.00440675    -0.01900
C828        C  0.30203721  0.30509260  0.98517410    -0.01900
C829        C  0.25606750  0.29246334  0.96519109     0.08000
C830        C  0.23611228  0.24799649  0.97817857    -0.02100
Br831      Br  0.16691317  0.23319744  0.97510667    -0.00700
Br832      Br  0.24785570  0.15038796  0.00742756    -0.00700
Br833      Br  0.32528918  0.36800626  0.98750445    -0.00700
Br834      Br  0.39380187  0.28234709  0.03352177    -0.00700
C835        C  0.27957370  0.51579155  0.72537455    -0.01800
C836        C  0.24614519  0.49355123  0.69412476     0.07900
C837        C  0.19647262  0.50433012  0.69869215    -0.01900
C838        C  0.18070701  0.52046996  0.74257619    -0.01900
C839        C  0.21413173  0.51884369  0.78120828     0.08000
C840        C  0.26408833  0.52475520  0.77132477    -0.02100
Br841      Br  0.31036289  0.54014742  0.82061127    -0.00700
Br842      Br  0.34735297  0.52208644  0.70835054    -0.00700
Br843      Br  0.11430565  0.54076297  0.75048912    -0.00700
Br844      Br  0.15114015  0.49322326  0.64749279    -0.00700
loop_ 
_geom_bond_atom_site_label_1 
_geom_bond_atom_site_label_2 
_geom_bond_distance 
_geom_bond_site_symmetry_2 
_ccdc_geom_bond_type 
Zn1           O5   2.084       .  S
Zn1           O6   2.168       .  S
Zn1          O10   2.191       .  S
Zn1          O17   2.144       .  S
Zn2           O5   2.093   1_556  S
Zn2           O7   2.202       .  S
Zn2           O9   2.219       .  S
Zn2          O13   2.248       .  S
Zn3           O5   2.101       .  S
Zn3           O8   2.212       .  S
Zn3          O11   2.170       .  S
Zn3          O14   2.229       .  S
Zn4           O5   2.096   1_556  S
Zn4          O12   2.240       .  S
Zn4          O15   2.199       .  S
Zn4          O16   2.211       .  S
O6           C18   1.285       .  A
O7           C19   1.299   1_556  A
O8           C20   1.297       .  A
O9           C18   1.303   1_556  A
O10          C20   1.296       .  A
O11          C19   1.294       .  A
O12          C21   1.300   1_556  A
O13          C22   1.303       .  A
O14          C21   1.300       .  A
O15          C22   1.293       .  A
O16          C23   1.300   1_556  A
O17          C23   1.291       .  A
C18         C227   1.565       .  S
C19          C93   1.557       .  S
C20         C349   1.570       .  S
C21         C221   1.589       .  S
C22         C425   1.584       .  S
C23          C99   1.555       .  S
Zn24         O28   2.080       .  S
Zn24         O29   2.206       .  S
Zn24         O33   2.258       .  S
Zn24         O40   2.197       .  S
Zn25         O28   2.080       .  S
Zn25         O30   2.103       .  S
Zn25         O32   2.177       .  S
Zn25         O36   2.200       .  S
Zn26         O28   2.083   1_545  S
Zn26         O31   2.189       .  S
Zn26         O34   2.124       .  S
Zn26         O37   2.204       .  S
Zn27         O28   2.079   1_545  S
Zn27         O35   2.170       .  S
Zn27         O38   2.198       .  S
Zn27         O39   2.163       .  S
O29          C41   1.297       .  A
O30          C42   1.285       .  A
O31          C43   1.293   1_545  A
O32          C41   1.292       .  A
O33          C43   1.304       .  A
O34          C42   1.288   1_545  A
O35          C44   1.292       .  A
O36          C45   1.294   1_565  A
O37          C44   1.297       .  A
O38          C45   1.295       .  A
O39          C46   1.294   1_545  A
O40          C46   1.299       .  A
C41         C390   1.561       .  S
C42         C233   1.508       .  S
C43         C477   1.580       .  S
C44         C384   1.556       .  S
C45         C483   1.566       .  S
C46         C274   1.549       .  S
Zn47         O51   2.084       .  S
Zn47         O52   2.180       .  S
Zn47         O56   2.207       .  S
Zn47         O63   2.213       .  S
Zn48         O51   2.088   1_655  S
Zn48         O53   2.249       .  S
Zn48         O55   2.130       .  S
Zn48         O59   2.204       .  S
Zn49         O51   2.090       .  S
Zn49         O54   2.196       .  S
Zn49         O57   2.252       .  S
Zn49         O60   2.225       .  S
Zn50         O51   2.091   1_655  S
Zn50         O58   2.160       .  S
Zn50         O61   2.156       .  S
Zn50         O62   2.162       .  S
O52          C64   1.294   1_455  A
O53          C65   1.302   1_655  A
O54          C66   1.297       .  A
O55          C64   1.287       .  A
O56          C66   1.299       .  A
O57          C65   1.303       .  A
O58          C67   1.292       .  A
O59          C68   1.298       .  A
O60          C67   1.302   1_455  A
O61          C68   1.291       .  A
O62          C69   1.288       .  A
O63          C69   1.296   1_455  A
C64         C501   1.538       .  S
C65         C105   1.596       .  S
C66         C419   1.563       .  S
C67         C489   1.556       .  S
C68         C355   1.552       .  S
C69         C117   1.560       .  S
Zn70         O74   2.092   1_554  S
Zn70         O75   2.183       .  S
Zn70         O79   2.222       .  S
Zn70         O86   2.251       .  S
Zn71         O74   2.091   1_655  S
Zn71         O76   2.145       .  S
Zn71         O78   2.165       .  S
Zn71         O82   2.166       .  S
Zn72         O74   2.091   1_565  S
Zn72         O77   2.184       .  S
Zn72         O80   2.127       .  S
Zn72         O83   2.205       .  S
Zn73         O74   2.085   1_664  S
Zn73         O81   2.255       .  S
Zn73         O84   2.202       .  S
Zn73         O85   2.270       .  S
O75          C87   1.292   1_454  A
O76          C88   1.288   1_655  A
O77          C89   1.295   1_565  A
O78          C87   1.290       .  A
O79          C89   1.300   1_554  A
O80          C88   1.286   1_565  A
O81          C90   1.305   1_654  A
O82          C91   1.291   1_545  A
O83          C90   1.296       .  A
O84          C91   1.298   1_554  A
O85          C92   1.308   1_665  A
O86          C92   1.302       .  A
C87         C111   1.552       .  S
C88         C553   1.527       .  S
C89         C239   1.564       .  S
C90         C146   1.584   1_455  S
C91         C245   1.554   1_565  S
C92         C495   1.601       .  S
C93          N94   1.378   1_554  A
C93          N98   1.380       .  A
N94          C95   1.384       .  A
C95         C172   1.472       .  S
C95          N96   1.334   1_556  A
N96          C97   1.340       .  A
C97         C194   1.476       .  S
C97          N98   1.384       .  A
C99         N100   1.379       .  A
C99         N104   1.383   1_554  A
N100        C101   1.380       .  A
C101        C219   1.457       .  S
C101        N102   1.325       .  A
N102        C103   1.325   1_554  A
C103        C144   1.460       .  S
C103        N104   1.385       .  A
C105        N106   1.379   1_455  A
C105        N110   1.402       .  A
N106        C107   1.387       .  A
C107        C195   1.497       .  S
C107        N108   1.341   1_655  A
N108        C109   1.351       .  A
C109        C218   1.528       .  S
C109        N110   1.405       .  A
C111        N112   1.381   1_655  A
C111        N116   1.386   1_556  A
N112        C113   1.380       .  A
C113        C140   1.477       .  S
C113        N114   1.344   1_455  A
N114        C115   1.339   1_556  A
C115        C193   1.495       .  S
C115        N116   1.387       .  A
C117        N118   1.390       .  A
C117        N122   1.387   1_655  A
N118        C119   1.387       .  A
C119        C170   1.494       .  S
C119        N120   1.333       .  A
N120        C121   1.337   1_655  A
C121        C145   1.486       .  S
C121        N122   1.384       .  A
Zn123       O127   1.864       .  S
Zn123       O128   2.113       .  S
Zn123       O132   1.925       .  S
Zn123       O139   2.061       .  S
Zn124       O127   1.815       .  S
Zn124       O129   1.919       .  S
Zn124       O131   1.979       .  S
Zn124       O135   1.995       .  S
Zn125       O127   1.944       .  S
Zn125       O130   1.890       .  S
Zn125       O133   2.063       .  S
Zn125       O136   2.064       .  S
Zn126       O127   1.796       .  S
Zn126       O134   1.947       .  S
Zn126       O137   2.044       .  S
Zn126       O138   2.031       .  S
O128        C140   1.284       .  A
O129        C141   1.256       .  A
O130        C142   1.260       .  A
O131        C140   1.276       .  A
O132        C142   1.272       .  A
O133        C141   1.278       .  A
O134        C143   1.261       .  A
O135        C144   1.271       .  A
O136        C143   1.278       .  A
O137        C144   1.288       .  A
O138        C145   1.293       .  A
O139        C145   1.278       .  A
C141        C829   1.477       .  S
C142        C819   1.404       .  S
C143        C839   1.483       .  S
C146        N147   1.390       .  A
C146        N151   1.382   1_656  A
N147        C148   1.395       .  A
C148        C171   1.491       .  S
C148        N149   1.345       .  A
N149        C150   1.330   1_656  A
C150        C220   1.490       .  S
C150        N151   1.388       .  A
Zn152       O156   1.822       .  S
Zn152       O157   1.995       .  S
Zn152       O161   2.002       .  S
Zn152       O168   1.964       .  S
Zn153       O156   1.835       .  S
Zn153       O158   1.972       .  S
Zn153       O160   1.892       .  S
Zn153       O164   1.977       .  S
Zn154       O156   1.792       .  S
Zn154       O159   2.121       .  S
Zn154       O162   2.175       .  S
Zn154       O165   2.169       .  S
Zn155       O156   1.917       .  S
Zn155       O163   1.871       .  S
Zn155       O166   1.998       .  S
Zn155       O167   1.973       .  S
O157        C169   1.288       .  A
O158        C170   1.258       .  A
O159        C171   1.300       .  A
O160        C169   1.262       .  A
O161        C171   1.275       .  A
O162        C170   1.300       .  A
O163        C172   1.251       .  A
O164        C173   1.267       .  A
O165        C172   1.297       .  A
O166        C173   1.279       .  A
O167        C174   1.268       .  A
O168        C174   1.258       .  A
C169        C786   1.429       .  S
C173        C806   1.482       .  S
C174        C796   1.479       .  S
Zn175       O179   1.900       .  S
Zn175       O180   1.928       .  S
Zn175       O184   1.982       .  S
Zn175       O191   1.964       .  S
Zn176       O179   1.930       .  S
Zn176       O181   1.930       .  S
Zn176       O183   1.976       .  S
Zn176       O187   1.943       .  S
Zn177       O179   1.838       .  S
Zn177       O182   2.090       .  S
Zn177       O185   2.189       .  S
Zn177       O188   2.218       .  S
Zn178       O179   1.896       .  S
Zn178       O186   1.883       .  S
Zn178       O189   1.985       .  S
Zn178       O190   2.002       .  S
O180        C192   1.260       .  A
O181        C193   1.266       .  A
O182        C194   1.290       .  A
O183        C192   1.273       .  A
O184        C194   1.267       .  A
O185        C193   1.304       .  A
O186        C195   1.247       .  A
O187        C196   1.271       .  A
O188        C195   1.301       .  A
O189        C196   1.272       .  A
O190        C197   1.283       .  A
O191        C197   1.274       .  A
C192        C766   1.491       .  S
C196        C759   1.496   1_655  S
C197        C776   1.481       .  S
Zn198       O202   1.870       .  S
Zn198       O203   1.943       .  S
Zn198       O207   1.893       .  S
Zn198       O214   1.837       .  S
Zn199       O202   1.939       .  S
Zn199       O204   1.975       .  S
Zn199       O206   2.099       .  S
Zn199       O210   1.904       .  S
Zn200       O202   1.850       .  S
Zn200       O205   1.969       .  S
Zn200       O208   1.961       .  S
Zn200       O211   2.081       .  S
Zn201       O202   1.820       .  S
Zn201       O209   2.169       .  S
Zn201       O212   2.140       .  S
Zn201       O213   2.247       .  S
O203        C215   1.251       .  A
O204        C216   1.270       .  A
O205        C217   1.283       .  A
O206        C215   1.280       .  A
O207        C217   1.279       .  A
O208        C216   1.270       .  A
O209        C218   1.299       .  A
O210        C219   1.263       .  A
O211        C218   1.273       .  A
O212        C219   1.307       .  A
O213        C220   1.301       .  A
O214        C220   1.234       .  A
C215        C739   1.474   1_554  S
C216        C746   1.481       .  S
C217        C726   1.453       .  S
C221        N222   1.394   1_554  A
C221        N226   1.388       .  A
N222        C223   1.396       .  A
C223        C297   1.483       .  S
C223        N224   1.321   1_556  A
N224        C225   1.327       .  A
C225        C346   1.474       .  S
C225        N226   1.389       .  A
C227        N228   1.401       .  A
C227        N232   1.390   1_554  A
N228        C229   1.380       .  A
C229        C324   1.474       .  S
C229        N230   1.319       .  A
N230        C231   1.320   1_554  A
C231        C271   1.491       .  S
C231        N232   1.389       .  A
C233        N234   1.377       .  A
C233        N238   1.365   1_565  A
N234        C235   1.375       .  A
C235        C323   1.452       .  S
C235        N236   1.339       .  A
N236        C237   1.333   1_565  A
C237        C345   1.454       .  S
C237        N238   1.367       .  A
C239        N240   1.397       .  A
C239        N244   1.380   1_546  A
N240        C241   1.394       .  A
C241        C302   1.499       .  S
C241        N242   1.332       .  A
N242        C243   1.325   1_546  A
C243        C321   1.460       .  S
C243        N244   1.377       .  A
C245        N246   1.371   1_556  A
C245        N250   1.391   1_545  A
N246        C247   1.375       .  A
C247        C344   1.469       .  S
C247        N248   1.333   1_554  A
N248        C249   1.341   1_545  A
C249        C272   1.491       .  S
C249        N250   1.394       .  A
Zn251       O255   1.939       .  S
Zn251       O256   2.030       .  S
Zn251       O260   2.049       .  S
Zn251       O267   2.004       .  S
Zn252       O255   1.843       .  S
Zn252       O257   2.063       .  S
Zn252       O259   1.922       .  S
Zn252       O263   2.073       .  S
Zn253       O255   1.872       .  S
Zn253       O258   1.912       .  S
Zn253       O261   2.071       .  S
Zn253       O264   2.094       .  S
Zn254       O255   1.837       .  S
Zn254       O262   2.061       .  S
Zn254       O265   2.047       .  S
Zn254       O266   1.962       .  S
O256        C268   1.272       .  A
O257        C269   1.278       .  A
O258        C270   1.252       .  A
O259        C268   1.258       .  A
O260        C270   1.272       .  A
O261        C269   1.285       .  A
O262        C271   1.289       .  A
O263        C272   1.273       .  A
O264        C271   1.283       .  A
O265        C272   1.292       .  A
O266        C273   1.258       .  A
O267        C273   1.276       .  A
C268        C709   1.479       .  S
C269        C276   1.482       .  S
C270        C716   1.490       .  S
C273        C799   1.471   1_556  S
C274        N275   1.385       .  A
C274        N279   1.382   1_565  A
N275        C276   1.383       .  A
C276        N277   1.339       .  A
N277        C278   1.340   1_565  A
C278        C299   1.486       .  S
C278        N279   1.382       .  A
Zn280       O284   1.813       .  S
Zn280       O285   2.168       .  S
Zn280       O289   2.140       .  S
Zn280       O296   2.143       .  S
Zn281       O284   1.824       .  S
Zn281       O286   1.860       .  S
Zn281       O288   1.948       .  S
Zn281       O292   1.990       .  S
Zn282       O284   1.919       .  S
Zn282       O287   1.990       .  S
Zn282       O290   2.040       .  S
Zn282       O293   1.911       .  S
Zn283       O284   1.905       .  S
Zn283       O291   1.984       .  S
Zn283       O294   2.010       .  S
Zn283       O295   2.023       .  S
O285        C297   1.295       .  A
O286        C298   1.271       .  A
O287        C299   1.272       .  A
O288        C297   1.241       .  A
O289        C299   1.300       .  A
O290        C298   1.280       .  A
O291        C300   1.277       .  A
O292        C301   1.267       .  A
O293        C300   1.261       .  A
O294        C301   1.285       .  A
O295        C302   1.265       .  A
O296        C302   1.300       .  A
C298        C699   1.475       .  S
C300        C686   1.474       .  S
C301        C826   1.463       .  S
Zn303       O307   2.000       .  S
Zn303       O308   2.052       .  S
Zn303       O312   2.022       .  S
Zn303       O319   1.936       .  S
Zn304       O307   1.882       .  S
Zn304       O309   2.160       .  S
Zn304       O311   2.052   1_554  S
Zn304       O315   2.088       .  S
Zn305       O307   1.861       .  S
Zn305       O310   1.946       .  S
Zn305       O313   2.014       .  S
Zn305       O316   1.998       .  S
Zn306       O307   1.928       .  S
Zn306       O314   2.034       .  S
Zn306       O317   2.084       .  S
Zn306       O318   1.864       .  S
O308        C320   1.280   1_554  A
O309        C321   1.279       .  A
O310        C322   1.267       .  A
O311        C320   1.269       .  A
O312        C322   1.271       .  A
O313        C321   1.280       .  A
O314        C323   1.282       .  A
O315        C324   1.274       .  A
O316        C323   1.281       .  A
O317        C324   1.271       .  A
O318        C325   1.259       .  A
O319        C325   1.261       .  A
C320        C736   1.466       .  S
C322        C666   1.473       .  S
C325        C676   1.411       .  S
Zn326       O330   1.889       .  S
Zn326       O331   1.916       .  S
Zn326       O335   1.888       .  S
Zn326       O342   1.989       .  S
Zn327       O330   1.904       .  S
Zn327       O332   1.899       .  S
Zn327       O334   2.055       .  S
Zn327       O338   1.996       .  S
Zn328       O330   1.802       .  S
Zn328       O333   2.124       .  S
Zn328       O336   2.136       .  S
Zn328       O339   2.112       .  S
Zn329       O330   1.882       .  S
Zn329       O337   1.936       .  S
Zn329       O340   1.945       .  S
Zn329       O341   1.927       .  S
O331        C343   1.257       .  A
O332        C344   1.255       .  A
O333        C345   1.297       .  A
O334        C343   1.282       .  A
O335        C345   1.261       .  A
O336        C344   1.297       .  A
O337        C346   1.253       .  A
O338        C347   1.276       .  A
O339        C346   1.292       .  A
O340        C347   1.266       .  A
O341        C348   1.250       .  A
O342        C348   1.265       .  A
C343        C646   1.469       .  S
C347        C769   1.463       .  S
C348        C659   1.461       .  S
C349        N350   1.394       .  A
C349        N354   1.385       .  A
N350        C351   1.392       .  A
C351        C383   1.509       .  S
C351        N352   1.343       .  A
N352        C353   1.341       .  A
C353        C414   1.489       .  S
C353        N354   1.381       .  A
C355        N356   1.378       .  A
C355        N360   1.384       .  A
N356        C357   1.382       .  A
C357        C378   1.477       .  S
C357        N358   1.332       .  A
N358        C359   1.341       .  A
C359        C474   1.474       .  S
C359        N360   1.385       .  A
Zn361       O365   1.809       .  S
Zn361       O366   2.147       .  S
Zn361       O370   2.157       .  S
Zn361       O377   2.135       .  S
Zn362       O365   1.892       .  S
Zn362       O367   1.982       .  S
Zn362       O369   1.891       .  S
Zn362       O373   2.011       .  S
Zn363       O365   1.843       .  S
Zn363       O368   2.007       .  S
Zn363       O371   1.958       .  S
Zn363       O374   1.978       .  S
Zn364       O365   1.902       .  S
Zn364       O372   1.908       .  S
Zn364       O375   1.990       .  S
Zn364       O376   2.056       .  S
O366        C378   1.294       .  A
O367        C379   1.268       .  A
O368        C380   1.275       .  A
O369        C378   1.258       .  A
O370        C380   1.300       .  A
O371        C379   1.271       .  A
O372        C381   1.259       .  A
O373        C382   1.281       .  A
O374        C381   1.286       .  A
O375        C382   1.277       .  A
O376        C383   1.272       .  A
O377        C383   1.293       .  A
C379        C636   1.472       .  S
C380        C386   1.507       .  S
C381        C656   1.438       .  S
C382        C779   1.479       .  S
C384        N385   1.385       .  A
C384        N389   1.377       .  A
N385        C386   1.389       .  A
C386        N387   1.352       .  A
N387        C388   1.351       .  A
C388        C450   1.496       .  S
C388        N389   1.381       .  A
C390        N391   1.394       .  A
C390        N395   1.389       .  A
N391        C392   1.386       .  A
C392        C416   1.493       .  S
C392        N393   1.329       .  A
N393        C394   1.323       .  A
C394        C476   1.476       .  S
C394        N395   1.383       .  A
Zn396       O400   1.889       .  S
Zn396       O401   1.992       .  S
Zn396       O405   1.910       .  S
Zn396       O412   2.011       .  S
Zn397       O400   1.869       .  S
Zn397       O402   2.071       .  S
Zn397       O404   1.993       .  S
Zn397       O408   2.015       .  S
Zn398       O400   1.872       .  S
Zn398       O403   1.905       .  S
Zn398       O406   2.079       .  S
Zn398       O409   2.105       .  S
Zn399       O400   1.837       .  S
Zn399       O407   1.989       .  S
Zn399       O410   2.034       .  S
Zn399       O411   1.957       .  S
O401        C413   1.268       .  A
O402        C414   1.287       .  A
O403        C415   1.269       .  A
O404        C413   1.275       .  A
O405        C415   1.265       .  A
O406        C414   1.285       .  A
O407        C416   1.290       .  A
O408        C417   1.286       .  A
O409        C416   1.279       .  A
O410        C417   1.280       .  A
O411        C418   1.256       .  A
O412        C418   1.274       .  A
C413        C749   1.474       .  S
C415        C679   1.407       .  S
C417        C423   1.465       .  S
C418        C626   1.458       .  S
C419        N420   1.379       .  A
C419        N424   1.389       .  A
N420        C421   1.382       .  A
C421        C451   1.455       .  S
C421        N422   1.320       .  A
N422        C423   1.321       .  A
C423        N424   1.392       .  A
C425        N426   1.388       .  A
C425        N430   1.392       .  A
N426        C427   1.389       .  A
C427        C473   1.502       .  S
C427        N428   1.342       .  A
N428        C429   1.343       .  A
C429        C449   1.506       .  S
C429        N430   1.392       .  A
Zn431       O435   1.950       .  S
Zn431       O436   2.046       .  S
Zn431       O440   2.010       .  S
Zn431       O447   2.024       .  S
Zn432       O435   1.916       .  S
Zn432       O437   2.024       .  S
Zn432       O439   1.917       .  S
Zn432       O443   1.923       .  S
Zn433       O435   1.887       .  S
Zn433       O438   2.148       .  S
Zn433       O441   2.164       .  S
Zn433       O444   2.085       .  S
Zn434       O435   1.971       .  S
Zn434       O442   1.869       .  S
Zn434       O445   2.051       .  S
Zn434       O446   1.961       .  S
O436        C448   1.276       .  A
O437        C449   1.263       .  A
O438        C450   1.296       .  A
O439        C448   1.262       .  A
O440        C450   1.271       .  A
O441        C449   1.297       .  A
O442        C451   1.246       .  A
O443        C452   1.264       .  A
O444        C451   1.287       .  A
O445        C452   1.272       .  A
O446        C453   1.268       .  A
O447        C453   1.274       .  A
C448        C696   1.484       .  S
C452        C836   1.476       .  S
C453        C616   1.496       .  S
Zn454       O458   1.908       .  S
Zn454       O459   1.977       .  S
Zn454       O463   2.114       .  S
Zn454       O470   2.110       .  S
Zn455       O458   1.926       .  S
Zn455       O460   2.048       .  S
Zn455       O462   1.954       .  S
Zn455       O466   2.059       .  S
Zn456       O458   1.850       .  S
Zn456       O461   2.051       .  S
Zn456       O464   1.906       .  S
Zn456       O467   2.011       .  S
Zn457       O458   1.903       .  S
Zn457       O465   2.077       .  S
Zn457       O468   1.941       .  S
Zn457       O469   2.022       .  S
O459        C471   1.259       .  A
O460        C472   1.270       .  A
O461        C473   1.276       .  A
O462        C471   1.271       .  A
O463        C473   1.297       .  A
O464        C472   1.252       .  A
O465        C474   1.276       .  A
O466        C475   1.275       .  A
O467        C474   1.280       .  A
O468        C475   1.262       .  A
O469        C476   1.269       .  A
O470        C476   1.296       .  A
C471        C719   1.474       .  S
C472        C809   1.486       .  S
C475        C609   1.495       .  S
C477        N478   1.395       .  A
C477        N482   1.384   1_565  A
N478        C479   1.396       .  A
C479        C527   1.492       .  S
C479        N480   1.327       .  A
N480        C481   1.325   1_565  A
C481        C604   1.466       .  S
C481        N482   1.386       .  A
C483        N484   1.399       .  A
C483        N488   1.379   1_545  A
N484        C485   1.397       .  A
C485        C550   1.498       .  S
C485        N486   1.328       .  A
N486        C487   1.327   1_545  A
C487        C580   1.456       .  S
C487        N488   1.377       .  A
C489        N490   1.377       .  A
C489        N494   1.398   1_655  A
N490        C491   1.373       .  A
C491        C552   1.467       .  S
C491        N492   1.335       .  A
N492        C493   1.338   1_655  A
C493        C601   1.511       .  S
C493        N494   1.395       .  A
C495        N496   1.393   1_545  A
C495        N500   1.405   1_455  A
N496        C497   1.389       .  A
C497        C525   1.476       .  S
C497        N498   1.313   1_565  A
N498        C499   1.317   1_455  A
C499        C549   1.498       .  S
C499        N500   1.402       .  A
C501        N502   1.371   1_655  A
C501        N506   1.382       .  A
N502        C503   1.376       .  A
C503        C526   1.475       .  S
C503        N504   1.339   1_455  A
N504        C505   1.346       .  A
C505        C579   1.477       .  S
C505        N506   1.384       .  A
Zn507       O511   1.952       .  S
Zn507       O512   2.005       .  S
Zn507       O516   1.892       .  S
Zn507       O523   1.915       .  S
Zn508       O511   1.924       .  S
Zn508       O513   1.889   1_455  S
Zn508       O515   1.969       .  S
Zn508       O519   2.059       .  S
Zn509       O511   1.817       .  S
Zn509       O514   2.165       .  S
Zn509       O517   2.128       .  S
Zn509       O520   2.148       .  S
Zn510       O511   1.927       .  S
Zn510       O518   1.967       .  S
Zn510       O521   1.983       .  S
Zn510       O522   1.986       .  S
O512        C524   1.257       .  A
O513        C525   1.253   1_655  A
O514        C526   1.299       .  A
O515        C524   1.248       .  A
O516        C526   1.257       .  A
O517        C525   1.295       .  A
O518        C527   1.257       .  A
O519        C528   1.278       .  A
O520        C527   1.296       .  A
O521        C528   1.279       .  A
O522        C529   1.275       .  A
O523        C529   1.264       .  A
C524        C729   1.436       .  S
C528        C669   1.478       .  S
C529        C629   1.473       .  S
Zn530       O534   1.932       .  S
Zn530       O535   1.931       .  S
Zn530       O539   2.030       .  S
Zn530       O546   2.046       .  S
Zn531       O534   1.965       .  S
Zn531       O536   2.015       .  S
Zn531       O538   2.036       .  S
Zn531       O542   2.092       .  S
Zn532       O534   1.854       .  S
Zn532       O537   2.075       .  S
Zn532       O540   1.975       .  S
Zn532       O543   2.133       .  S
Zn533       O534   1.862       .  S
Zn533       O541   2.058       .  S
Zn533       O544   1.960       .  S
Zn533       O545   2.041       .  S
O535        C547   1.259       .  A
O536        C548   1.280       .  A
O537        C549   1.301       .  A
O538        C547   1.273       .  A
O539        C549   1.256       .  A
O540        C548   1.261       .  A
O541        C550   1.269       .  A
O542        C551   1.270       .  A
O543        C550   1.299       .  A
O544        C551   1.249       .  A
O545        C552   1.274       .  A
O546        C552   1.274       .  A
C547        C756   1.483       .  S
C548        C649   1.477   1_545  S
C551        C639   1.488       .  S
C553        N554   1.381   1_445  A
C553        N558   1.383       .  A
N554        C555   1.376       .  A
C555        C577   1.478       .  S
C555        N556   1.338   1_665  A
N556        C557   1.338       .  A
C557        C602   1.477       .  S
C557        N558   1.377       .  A
Zn559       O563   1.776       .  S
Zn559       O564   1.982       .  S
Zn559       O568   1.902       .  S
Zn559       O575   1.996       .  S
Zn560       O563   1.827       .  S
Zn560       O565   1.985       .  S
Zn560       O567   1.986       .  S
Zn560       O571   2.048       .  S
Zn561       O563   1.882       .  S
Zn561       O566   2.017       .  S
Zn561       O569   2.101       .  S
Zn561       O572   2.058       .  S
Zn562       O563   1.844       .  S
Zn562       O570   2.074       .  S
Zn562       O573   1.980       .  S
Zn562       O574   2.006       .  S
O564        C576   1.267       .  A
O565        C577   1.290       .  A
O566        C578   1.274       .  A
O567        C576   1.265       .  A
O568        C578   1.246       .  A
O569        C577   1.288       .  A
O570        C579   1.290       .  A
O571        C580   1.284       .  A
O572        C579   1.286       .  A
O573        C580   1.284       .  A
O574        C581   1.280       .  A
O575        C581   1.273       .  A
C576        C706   1.468       .  S
C578        C789   1.420       .  S
C581        C606   1.481       .  S
Zn582       O586   1.848       .  S
Zn582       O587   1.988       .  S
Zn582       O591   2.085       .  S
Zn582       O598   2.099       .  S
Zn583       O586   1.922       .  S
Zn583       O588   1.944       .  S
Zn583       O590   1.983       .  S
Zn583       O594   1.999       .  S
Zn584       O586   1.867       .  S
Zn584       O589   2.069       .  S
Zn584       O592   1.881       .  S
Zn584       O595   2.116       .  S
Zn585       O586   1.874       .  S
Zn585       O593   1.995       .  S
Zn585       O596   1.963       .  S
Zn585       O597   1.956       .  S
O587        C599   1.259       .  A
O588        C600   1.271       .  A
O589        C601   1.274       .  A
O590        C599   1.266       .  A
O591        C601   1.298       .  A
O592        C600   1.270       .  A
O593        C602   1.278       .  A
O594        C603   1.263       .  A
O595        C602   1.287       .  A
O596        C603   1.271       .  A
O597        C604   1.270       .  A
O598        C604   1.297       .  A
C599        C619   1.478       .  S
C600        C816   1.407       .  S
C603        C689   1.468       .  S
C605        C606   1.391       .  A
C605        C610   1.402       .  A
C605       Br612   1.927       .  S
C606        C607   1.396       .  A
C607        C608   1.409       .  A
C607       Br614   1.921       .  S
C608        C609   1.425       .  A
C608       Br613   1.916       .  S
C609        C610   1.436       .  A
C610       Br611   1.932       .  S
C615        C616   1.433       .  A
C615        C620   1.410       .  A
C615       Br622   1.924       .  S
C616        C617   1.429       .  A
C617        C618   1.412       .  A
C617       Br624   1.925       .  S
C618        C619   1.398       .  A
C618       Br623   1.920       .  S
C619        C620   1.395       .  A
C620       Br621   1.921       .  S
C625        C626   1.395       .  A
C625        C630   1.397       .  A
C625       Br632   1.924       .  S
C626        C627   1.402       .  A
C627        C628   1.397       .  A
C627       Br634   1.904       .  S
C628        C629   1.411       .  A
C628       Br633   1.933       .  S
C629        C630   1.422       .  A
C630       Br631   1.932       .  S
C635        C636   1.387       .  A
C635        C640   1.398       .  A
C635       Br642   1.929       .  S
C636        C637   1.402       .  A
C637        C638   1.417       .  A
C637       Br644   1.913       .  S
C638        C639   1.428       .  A
C638       Br643   1.924       .  S
C639        C640   1.434       .  A
C640       Br641   1.932       .  S
C645        C646   1.431   1_565  A
C645        C650   1.411       .  A
C645       Br652   1.930       .  S
C646        C647   1.415   1_545  A
C647        C648   1.401       .  A
C647       Br654   1.916   1_565  S
C648        C649   1.396       .  A
C648       Br653   1.907       .  S
C649        C650   1.396       .  A
C650       Br651   1.920       .  S
C655        C656   1.395       .  A
C655        C660   1.389       .  A
C655       Br662   1.920       .  S
C656        C657   1.392       .  A
C657        C658   1.398       .  A
C657       Br664   1.933       .  S
C658        C659   1.431       .  A
C658       Br663   1.937       .  S
C659        C660   1.412       .  A
C660       Br661   1.923       .  S
C665        C666   1.417       .  A
C665        C670   1.399       .  A
C665       Br672   1.929   1_565  S
C666        C667   1.414       .  A
C667        C668   1.398       .  A
C667       Br674   1.931       .  S
C668        C669   1.397       .  A
C668       Br673   1.896       .  S
C669        C670   1.401       .  A
C670       Br671   1.927   1_565  S
C675        C676   1.403       .  A
C675        C680   1.380       .  A
C675       Br682   1.950       .  S
C676        C677   1.409       .  A
C677        C678   1.386       .  A
C677       Br684   1.930       .  S
C678        C679   1.395       .  A
C678       Br683   1.939       .  S
C679        C680   1.397       .  A
C680       Br681   1.922       .  S
C685        C686   1.406       .  A
C685        C690   1.403       .  A
C685       Br692   1.920       .  S
C686        C687   1.406       .  A
C687        C688   1.395       .  A
C687       Br694   1.914       .  S
C688        C689   1.402       .  A
C688       Br693   1.926       .  S
C689        C690   1.411       .  A
C690       Br691   1.926       .  S
C695        C696   1.430       .  A
C695        C700   1.408       .  A
C695       Br702   1.909       .  S
C696        C697   1.428       .  A
C697        C698   1.406       .  A
C697       Br704   1.897       .  S
C698        C699   1.388       .  A
C698       Br703   1.918       .  S
C699        C700   1.397       .  A
C700       Br701   1.918       .  S
C705        C706   1.382       .  A
C705        C710   1.397       .  A
C705       Br712   1.928   1_565  S
C706        C707   1.401       .  A
C707        C708   1.407       .  A
C707       Br714   1.918       .  S
C708        C709   1.420       .  A
C708       Br713   1.925       .  S
C709        C710   1.437       .  A
C710       Br711   1.930       .  S
C715        C716   1.428       .  A
C715        C720   1.411       .  A
C715       Br722   1.921       .  S
C716        C717   1.441       .  A
C717        C718   1.408       .  A
C717       Br724   1.923       .  S
C718        C719   1.386       .  A
C718       Br723   1.921       .  S
C719        C720   1.397       .  A
C720       Br721   1.912       .  S
C725        C726   1.412       .  A
C725        C730   1.397       .  A
C725       Br732   1.908       .  S
C726        C727   1.390       .  A
C727        C728   1.399       .  A
C727       Br734   1.914       .  S
C728        C729   1.416       .  A
C728       Br733   1.900       .  S
C729        C730   1.412       .  A
C730       Br731   1.937   1_455  S
C735        C736   1.404       .  A
C735        C740   1.410       .  A
C735       Br742   1.913       .  S
C736        C737   1.398       .  A
C737        C738   1.409       .  A
C737       Br744   1.921       .  S
C738        C739   1.424       .  A
C738       Br743   1.926       .  S
C739        C740   1.409       .  A
C740       Br741   1.924   1_556  S
C745        C746   1.426       .  A
C745        C750   1.406       .  A
C745       Br752   1.924       .  S
C746        C747   1.415       .  A
C747        C748   1.399       .  A
C747       Br754   1.901       .  S
C748        C749   1.397       .  A
C748       Br753   1.929       .  S
C749        C750   1.397       .  A
C750       Br751   1.922       .  S
C755        C756   1.433       .  A
C755        C760   1.409   1_655  A
C755       Br762   1.925       .  S
C756        C757   1.455       .  A
C757        C758   1.413   1_655  A
C757       Br764   1.914       .  S
C758        C759   1.385       .  A
C758       Br763   1.921       .  S
C759        C760   1.397       .  A
C760       Br761   1.896       .  S
C765        C766   1.405       .  A
C765        C770   1.401       .  A
C765       Br772   1.914       .  S
C766        C767   1.406       .  A
C767        C768   1.403       .  A
C767       Br774   1.917       .  S
C768        C769   1.416       .  A
C768       Br773   1.918       .  S
C769        C770   1.409       .  A
C770       Br771   1.918       .  S
C775        C776   1.421       .  A
C775        C780   1.401       .  A
C775       Br782   1.934       .  S
C776        C777   1.412       .  A
C777        C778   1.404       .  A
C777       Br784   1.920       .  S
C778        C779   1.402       .  A
C778       Br783   1.920       .  S
C779        C780   1.403       .  A
C780       Br781   1.928       .  S
C785        C786   1.390       .  A
C785        C790   1.385       .  A
C785       Br792   1.921       .  S
C786        C787   1.410       .  A
C787        C788   1.391       .  A
C787       Br794   1.921       .  S
C788        C789   1.393       .  A
C788       Br793   1.929       .  S
C789        C790   1.403       .  A
C790       Br791   1.915       .  S
C795        C796   1.433   1_554  A
C795        C800   1.406       .  A
C795       Br802   1.931   1_554  S
C796        C797   1.426   1_556  A
C797        C798   1.407       .  A
C797       Br804   1.929   1_554  S
C798        C799   1.396       .  A
C798       Br803   1.916       .  S
C799        C800   1.392       .  A
C800       Br801   1.923       .  S
C805        C806   1.399       .  A
C805        C810   1.410       .  A
C805       Br812   1.919       .  S
C806        C807   1.394       .  A
C807        C808   1.408       .  A
C807       Br814   1.904       .  S
C808        C809   1.423       .  A
C808       Br813   1.909       .  S
C809        C810   1.430       .  A
C810       Br811   1.926       .  S
C815        C816   1.403       .  A
C815        C820   1.385       .  A
C815       Br822   1.923       .  S
C816        C817   1.402       .  A
C817        C818   1.379       .  A
C817       Br824   1.935       .  S
C818        C819   1.397       .  A
C818       Br823   1.933       .  S
C819        C820   1.395       .  A
C820       Br821   1.933       .  S
C825        C826   1.395       .  A
C825        C830   1.401       .  A
C825       Br832   1.918   1_556  S
C826        C827   1.388   1_556  A
C827        C828   1.398   1_554  A
C827       Br834   1.910       .  S
C828        C829   1.414       .  A
C828       Br833   1.901       .  S
C829        C830   1.428       .  A
C830       Br831   1.933       .  S
C835        C836   1.413       .  A
C835        C840   1.403       .  A
C835       Br842   1.925       .  S
C836        C837   1.398       .  A
C837        C838   1.405       .  A
C837       Br844   1.922       .  S
C838        C839   1.417       .  A
C838       Br843   1.919       .  S
C839        C840   1.405       .  A
C840       Br841   1.922       .  S
