geometry optimzed in LAMMPS
_audit_creation_date              2020-11-30 
_audit_creation_method            'lammps2cif' 
_symmetry_space_group_name_H-M    'P1' 
_symmetry_Int_Tables_number       1 
_symmetry_cell_setting            triclinic 
loop_ 
_symmetry_equiv_pos_as_xyz 
  x,y,z 
_cell_length_a                    28.12575754 
_cell_length_b                    28.127072294475536 
_cell_length_c                    28.11439091146907 
_cell_angle_alpha                 90.05823337428073 
_cell_angle_beta                  89.99843503627058 
_cell_angle_gamma                 90.00322207723377 
loop_ 
_atom_site_label 
_atom_site_type_symbol 
_atom_site_fract_x 
_atom_site_fract_y 
_atom_site_fract_z 
_atom_site_charge 
C1          C  0.14283922  0.75255521  0.95497204     0.80600
N2          N  0.09381699  0.75131355  0.95679940    -0.77700
C3          C  0.06957089  0.75052676  0.99913714     0.83100
N4          N  0.09566644  0.74978746  0.04032018    -0.77600
C5          C  0.14469288  0.75105399  0.04008710     0.83200
N6          N  0.16790318  0.75270801  0.99703140    -0.79400
C7          C  0.45569200  0.56658574  0.98655232     0.80600
N8          N  0.45528303  0.59228515  0.94570446    -0.77700
C9          C  0.44880091  0.64002738  0.94775920     0.83100
N10         N  0.44160516  0.66151749  0.98976562    -0.77600
C11         C  0.44067212  0.63606678  0.02992230     0.83200
N12         N  0.44673177  0.58857409  0.02852412    -0.79400
C13         C  0.84421259  0.20398782  0.04428167     0.80600
N14         N  0.89340783  0.20472938  0.04396666    -0.77700
C15         C  0.91913572  0.20623704  0.00238998     0.83100
N16         N  0.89446812  0.20844109  0.96047801    -0.77600
C17         C  0.84555645  0.20792213  0.95913189     0.83200
N18         N  0.82072716  0.20532457  0.00135034    -0.79400
C19         C  0.57059076  0.37983436  0.04963209     0.80600
N20         N  0.58240615  0.36222036  0.00662066    -0.77700
C21         C  0.57639271  0.31609116  0.99665094     0.83100
N22         N  0.55975467  0.28624880  0.02999277    -0.77600
C23         C  0.54669657  0.30352506  0.07294411     0.83200
N24         N  0.55266774  0.35039169  0.08331912    -0.79400
C25         C  0.76733112  0.93429454  0.15192266     0.80600
N26         N  0.76593069  0.93585899  0.10292268    -0.77700
C27         C  0.76691167  0.97799563  0.07854355     0.83100
N28         N  0.76807699  0.01922293  0.10452356    -0.77600
C29         C  0.76949764  0.01911767  0.15358222     0.83200
N30         N  0.76930895  0.97627306  0.17693491    -0.79400
C31         C  0.67892378  0.04030187  0.46377286     0.80600
N32         N  0.69508572  0.99633625  0.45282648    -0.77700
C33         C  0.66416866  0.96188074  0.44055825     0.83100
N34         N  0.61766300  0.97185055  0.43680422    -0.77600
C35         C  0.60121880  0.01577944  0.44702687     0.83200
N36         N  0.63185171  0.05015576  0.46060217    -0.79400
C37         C  0.22059708  0.02418893  0.84806451     0.80600
N38         N  0.22220730  0.02350631  0.89716490    -0.77700
C39         C  0.22377385  0.98182138  0.92245632     0.83100
N40         N  0.22503418  0.94004894  0.89742226    -0.77600
C41         C  0.22361989  0.93900847  0.84845821     0.83200
N42         N  0.22111113  0.98146284  0.82406840    -0.79400
C43         C  0.31290366  0.93176804  0.53480780     0.80600
N44         N  0.29127663  0.97336758  0.54471301    -0.77700
C45         C  0.31703249  0.01340725  0.54850620     0.83100
N46         N  0.36465040  0.01189097  0.54368717    -0.77600
C47         C  0.38656323  0.97055479  0.53251211     0.83200
N48         N  0.36060230  0.93027063  0.52884954    -0.79400
C49         C  0.84409053  0.74967602  0.04534221     0.80600
N50         N  0.89309835  0.74865944  0.04404744    -0.77700
C51         C  0.91785348  0.74991068  0.00205567     0.83100
N52         N  0.89229916  0.75109088  0.96056376    -0.77600
C53         C  0.84327439  0.75229385  0.96008317     0.83200
N54         N  0.81946232  0.75178183  0.00293952    -0.79400
C55         C  0.53887559  0.65494278  0.06183514     0.80600
N56         N  0.54745341  0.67154564  0.01772083    -0.77700
C57         C  0.56016268  0.64145506  0.98280911     0.83100
N58         N  0.56664654  0.59487203  0.99241775    -0.77600
C59         C  0.55787845  0.57798749  0.03672574     0.83200
N60         N  0.54417862  0.60817212  0.07139078    -0.79400
C61         C  0.14491762  0.20417996  0.95600115     0.80600
N62         N  0.16952511  0.20218079  0.99813375    -0.77700
C63         C  0.14584493  0.20203679  0.04080486     0.83100
N64         N  0.09684879  0.20346497  0.04073412    -0.77600
C65         C  0.07107721  0.20453237  0.99946130     0.83200
N66         N  0.09578915  0.20560314  0.95733768    -0.79400
C67         C  0.46513423  0.29225073  0.94262459     0.80600
N68         N  0.45442406  0.26890834  0.98312273    -0.77700
C69         C  0.45167400  0.29271533  0.02447954     0.83100
N70         N  0.45868078  0.34004673  0.02540382    -0.77600
C71         C  0.47081075  0.36371851  0.98539250     0.83200
N72         N  0.47317043  0.33974609  0.94365561    -0.79400
C73         C  0.76675262  0.93806705  0.85201373     0.80600
N74         N  0.76608054  0.93843367  0.90112470    -0.77700
C75         C  0.76481526  0.97990499  0.92686223     0.83100
N76         N  0.76298612  0.02192712  0.90230670    -0.77600
C77         C  0.76368593  0.02336378  0.85333441     0.83200
N78         N  0.76585934  0.98103704  0.82847804    -0.79400
C79         C  0.65850788  0.00382920  0.56432945     0.80600
N80         N  0.68413668  0.96411205  0.55824667    -0.77700
C81         C  0.66256861  0.92346299  0.54494225     0.83100
N82         N  0.61464266  0.92218242  0.53906970    -0.77600
C83         C  0.58901586  0.96270165  0.54477571     0.83200
N84         N  0.61122341  0.00306848  0.55830047    -0.79400
C85         C  0.22282636  0.02124349  0.14908312     0.80600
N86         N  0.22377250  0.02100421  0.10003267    -0.77700
C87         C  0.22506846  0.97974872  0.07413678     0.83100
N88         N  0.22672985  0.93763758  0.09853432    -0.77600
C89         C  0.22591926  0.93607024  0.14753052     0.83200
N90         N  0.22370387  0.97827659  0.17258006    -0.79400
C91         C  0.34308931  0.96086254  0.42243831     0.80600
N92         N  0.38936038  0.97237994  0.41818277    -0.77700
C93         C  0.40413100  0.01697480  0.42897729     0.83100
N94         N  0.37213416  0.05017642  0.44254649    -0.77600
C95         C  0.32565547  0.03816387  0.44613871     0.83200
N96         N  0.31124125  0.99385715  0.43538362    -0.79400
C97         C  0.95072458  0.13130821  0.77339641     0.80600
N98         N  0.95218813  0.08241141  0.77242469    -0.77700
C99         C  0.99419791  0.05790401  0.77286348     0.83100
N100        N  0.03565534  0.08360769  0.77307300    -0.77600
C101        C  0.03585753  0.13268949  0.77409871     0.83200
N102        N  0.99293241  0.15619822  0.77449522    -0.79400
C103        C  0.97315659  0.41349970  0.66010979     0.80600
N104        N  0.97959991  0.41020518  0.61287550    -0.77700
C105        C  0.02250270  0.41993838  0.59363868     0.83100
N106        N  0.05945852  0.43162557  0.62226520    -0.77600
C107        C  0.05265737  0.43444661  0.66995425     0.83200
N108        N  0.00972774  0.42453946  0.68871097    -0.79400
C109        C  0.03682416  0.83298523  0.77015081     0.80600
N110        N  0.03561447  0.88186980  0.76995988    -0.77700
C111        C  0.99372203  0.90655178  0.77140301     0.83100
N112        N  0.95208219  0.88104123  0.77186927    -0.77600
C113        C  0.95163116  0.83192933  0.77226204     0.83200
N114        N  0.99449675  0.80828857  0.77164654    -0.79400
C115        C  0.93610469  0.51807332  0.68055646     0.80600
N116        N  0.93263972  0.51473792  0.63246052    -0.77700
C117        C  0.97187696  0.52159619  0.60534433     0.83100
N118        N  0.01339354  0.53329914  0.62631740    -0.77600
C119        C  0.01658757  0.53668802  0.67377477     0.83200
N120        N  0.97795561  0.52972020  0.70093522    -0.79400
C121        C  0.03943330  0.83019926  0.22911755     0.80600
N122        N  0.03873071  0.87933342  0.22980406    -0.77700
C123        C  0.99705105  0.90486476  0.23095721     0.83100
N124        N  0.95509921  0.87981764  0.23277360    -0.77600
C125        C  0.95381361  0.83070409  0.23223782     0.83200
N126        N  0.99646894  0.80630333  0.23000781    -0.79400
C127        C  0.02640861  0.53700873  0.33577031     0.80600
N128        N  0.02256549  0.53255976  0.38336760    -0.77700
C129        C  0.98003594  0.52142957  0.40315691     0.83100
N130        N  0.94118631  0.51719806  0.37523320    -0.77600
C131        C  0.94528738  0.52258534  0.32763864     0.83200
N132        N  0.98775470  0.53277620  0.30814373    -0.79400
C133        C  0.95329230  0.13138093  0.22507913     0.80600
N134        N  0.99550059  0.15618714  0.22258908    -0.77700
C135        C  0.03838306  0.13253904  0.22268003     0.83100
N136        N  0.03808692  0.08340240  0.22505811    -0.77600
C137        C  0.99672836  0.05754067  0.22681037     0.83200
N138        N  0.95476943  0.08234484  0.22738418    -0.79400
C139        C  0.04808294  0.43371817  0.31683186     0.80600
N140        N  0.05568089  0.42894544  0.36408164    -0.77700
C141        C  0.01917709  0.41764795  0.39313581     0.83100
N142        N  0.97530741  0.41068537  0.37475150    -0.77600
C143        C  0.96796983  0.41628171  0.32770783     0.83200
N144        N  0.00445980  0.42631495  0.29851878    -0.79400
C145        C  0.26999667  0.52289364  0.34702698     0.80600
N146        N  0.27377702  0.48117616  0.32159912    -0.77700
C147        C  0.27606100  0.43810594  0.34443888     0.83100
N148        N  0.27466510  0.43776153  0.39373361    -0.77600
C149        C  0.27167767  0.47885233  0.42018612     0.83200
N150        N  0.26880939  0.52099315  0.39598918    -0.79400
C151        C  0.09962201  0.44306362  0.06599833     0.80600
N152        N  0.11741196  0.48687322  0.07380583    -0.77700
C153        C  0.16331418  0.49623921  0.06489614     0.83100
N154        N  0.19261467  0.46149237  0.05010313    -0.77600
C155        C  0.17510412  0.41765824  0.04140899     0.83200
N156        N  0.12850858  0.40814279  0.04971887    -0.79400
O157        O  0.14729682  0.72733259  0.12131752    -0.86100
O158        O  0.37932402  0.80571417  0.24210872    -0.86300
O159        O  0.24989509  0.85418216  0.14770846    -0.87900
O160        O  0.33171743  0.72497002  0.11881597    -0.86700
O161        O  0.34224922  0.65308727  0.15684412    -0.86300
O162        O  0.21457475  0.88227402  0.21563099    -0.87600
O163        O  0.34335315  0.81877625  0.16936488    -0.86100
O164        O  0.21520005  0.76176729  0.09216868    -0.85700
Zr165      Zr  0.27225066  0.77045618  0.16206126     2.84300
O166        O  0.31951608  0.72087859  0.21205743    -1.07700
O167        O  0.19682969  0.77970561  0.19492803    -1.08400
C168        C  0.17131603  0.74667865  0.08722739     1.07000
C169        C  0.37502122  0.82652847  0.20162586     1.07000
C170        C  0.23031599  0.88800161  0.17227924     1.09900
C171        C  0.35264890  0.68472069  0.12567050     1.07700
H172        H  0.29379181  0.83313382  0.23889282     0.33300
O173        O  0.28150952  0.80113464  0.23946846    -1.28600
H174        H  0.24031434  0.68220712  0.13981673     0.33000
O175        O  0.24087973  0.69450327  0.17185106    -1.30300
O176        O  0.34619030  0.73016355  0.37203400    -0.86100
O177        O  0.11921059  0.64603316  0.24938583    -0.87600
O178        O  0.25383961  0.85804418  0.32629375    -0.86200
O179        O  0.37102155  0.62722916  0.24559221    -0.86200
O180        O  0.24374116  0.59686031  0.16737381    -0.85900
O181        O  0.12246949  0.82847153  0.24956503    -0.85700
O182        O  0.16348483  0.73082459  0.37412193    -0.86100
O183        O  0.24665141  0.60489912  0.34718367    -0.85600
O184        O  0.15440112  0.80432520  0.33861677    -0.86600
O185        O  0.27866403  0.57544285  0.27825108    -0.85800
O186        O  0.32705051  0.82212920  0.33526979    -0.86200
O187        O  0.09316486  0.76070975  0.21489766    -0.85900
O188        O  0.17062939  0.63246171  0.15598371    -0.85600
O189        O  0.40062520  0.69555188  0.27866251    -0.86000
O190        O  0.27719478  0.69819086  0.40112955    -0.86300
O191        O  0.15627117  0.63524533  0.32182987    -0.87600
Zr192      Zr  0.33130380  0.75165009  0.28784956     2.83100
Zr193      Zr  0.16376650  0.70415058  0.20364565     2.83500
Zr194      Zr  0.20610611  0.81204319  0.27078163     2.84100
Zr195      Zr  0.28827736  0.64461709  0.22246235     2.83400
Zr196      Zr  0.22325414  0.68772703  0.33045128     2.84200
O197        O  0.21285192  0.65650911  0.25379072    -1.08200
O198        O  0.25519437  0.76353717  0.32033391    -1.07700
C199        C  0.32100046  0.71256323  0.40649752     1.07000
C200        C  0.12491040  0.62555364  0.29004638     1.09600
C201        C  0.29582347  0.85405119  0.34439836     1.07200
C202        C  0.40540085  0.65166481  0.26418304     1.07500
C203        C  0.20277008  0.60088143  0.14752598     1.07100
C204        C  0.08780593  0.80428139  0.23106484     1.06700
C205        C  0.14202359  0.77053640  0.36682437     1.07100
C206        C  0.26479441  0.57058795  0.32227720     1.06600
H207        H  0.14239370  0.73467324  0.28906943     0.33300
O208        O  0.17500433  0.73491844  0.27875030    -1.29300
H209        H  0.31799747  0.65718517  0.31774648     0.33300
O210        O  0.29823006  0.67694763  0.29782150    -1.30700
C211        C  0.34287759  0.25546488  0.45551195     0.80600
N212        N  0.31878573  0.25574271  0.49826857    -0.77700
C213        C  0.34316440  0.25413413  0.54089931     0.83100
N214        N  0.39212206  0.25279322  0.53999486    -0.77600
C215        C  0.41734176  0.25314637  0.49835358     0.83200
N216        N  0.39206364  0.25379409  0.45649895    -0.79400
C217        C  0.04076005  0.16852509  0.43799484     0.80600
N218        N  0.04663067  0.12087434  0.43310432    -0.77700
C219        C  0.05697905  0.09408756  0.47170023     0.83100
N220        N  0.06170293  0.11518769  0.51446879    -0.77600
C221        C  0.05592729  0.16228445  0.51919300     0.83200
N222        N  0.04691905  0.18942059  0.48084264    -0.79400
O223        O  0.24497596  0.10499069  0.84670619    -0.86100
O224        O  0.16124714  0.23695217  0.61932624    -0.86300
O225        O  0.11620384  0.13438361  0.74855176    -0.87900
O226        O  0.23871834  0.10442556  0.66411119    -0.86700
O227        O  0.31160894  0.13973860  0.65049869    -0.86300
O228        O  0.09008346  0.20217532  0.78546168    -0.87600
O229        O  0.14714190  0.16366721  0.65344602    -0.86100
O230        O  0.20688544  0.07902226  0.77935956    -0.85700
Zr231      Zr  0.19741723  0.15062630  0.72331077     2.84300
O232        O  0.24917976  0.19826364  0.67564604    -1.07700
O233        O  0.19278259  0.18049712  0.80041971    -1.08400
C234        C  0.22394147  0.07215280  0.82244177     1.07000
C235        C  0.13916646  0.19724797  0.62308856     1.07000
C236        C  0.08340258  0.15872752  0.76944432     1.09900
C237        C  0.27825473  0.10959101  0.64164972     1.07700
H238        H  0.13557280  0.23068545  0.70579949     0.33300
O239        O  0.16804571  0.22898581  0.71671109    -1.28600
H240        H  0.28182246  0.12520115  0.74993036     0.33000
O241        O  0.27362545  0.15831571  0.75213549    -1.30300
O242        O  0.24396291  0.35634861  0.64863703    -0.86100
O243        O  0.33704500  0.22451155  0.86902818    -0.87600
O244        O  0.12295735  0.32336390  0.75773648    -0.86200
O245        O  0.34247851  0.22894634  0.62215028    -0.86200
O246        O  0.36827634  0.14009089  0.74479076    -0.85900
O247        O  0.14623513  0.23093888  0.87588524    -0.85700
O248        O  0.24667527  0.36112895  0.83146335    -0.86100
O249        O  0.37117021  0.32888637  0.74902095    -0.85600
O250        O  0.17349328  0.32618848  0.84487196    -0.86600
O251        O  0.39877272  0.26002845  0.71496318    -0.85800
O252        O  0.16393058  0.33680224  0.68810704    -0.86200
O253        O  0.21412965  0.19446212  0.90222186    -0.85900
O254        O  0.33160737  0.12845244  0.81743656    -0.85600
O255        O  0.27500331  0.26589189  0.59546201    -0.86000
O256        O  0.27878640  0.38396810  0.71698610    -0.86300
O257        O  0.34835111  0.29793313  0.83430269    -0.87600
Zr258      Zr  0.22034602  0.27495668  0.66676152     2.83100
Zr259      Zr  0.26947938  0.18662261  0.83086565     2.83500
Zr260      Zr  0.16246018  0.25684767  0.79465761     2.84100
Zr261      Zr  0.32715897  0.20480556  0.70493579     2.83400
Zr262      Zr  0.28908575  0.31345237  0.77379065     2.84200
O263        O  0.31739094  0.23532216  0.78100973    -1.08200
O264        O  0.21364440  0.30153181  0.74465273    -1.07700
C265        C  0.26327586  0.38996468  0.67327323     1.07000
C266        C  0.36074471  0.26298460  0.86111410     1.09600
C267        C  0.13458371  0.34847067  0.72127588     1.07200
C268        C  0.31808129  0.24952547  0.58892898     1.07500
C269        C  0.35965527  0.11650216  0.78319984     1.07100
C270        C  0.17052175  0.20984144  0.90857829     1.06700
C271        C  0.20620753  0.35736463  0.85264650     1.07100
C272        C  0.40473566  0.30397265  0.72979781     1.06600
H273        H  0.24198415  0.27500847  0.85722796     0.33300
O274        O  0.24094382  0.26389871  0.82478094    -1.29300
H275        H  0.31643959  0.30099511  0.67778593     0.33300
O276        O  0.29654581  0.28135245  0.69770798    -1.30700
C277        C  0.34526732  0.70865271  0.45492358     0.80600
N278        N  0.31974355  0.70784933  0.49686200    -0.77700
C279        C  0.34261333  0.70700629  0.54020235     0.83100
N280        N  0.39164743  0.70637538  0.54064656    -0.77600
C281        C  0.41799901  0.70616364  0.49960490     0.83200
N282        N  0.39418660  0.70791223  0.45711512    -0.79400
C283        C  0.05892842  0.89282284  0.47696697     0.80600
N284        N  0.06338420  0.87266052  0.52050938    -0.77700
C285        C  0.05905425  0.82517999  0.52543384     0.83100
N286        N  0.05270482  0.79756569  0.48708821    -0.77600
C287        C  0.04809753  0.81738151  0.44386388     0.83200
N288        N  0.05166571  0.86496377  0.43849652    -0.79400
C289        C  0.26420926  0.52287369  0.64681437     0.80600
N290        N  0.26559061  0.48048958  0.67132479    -0.77700
C291        C  0.26690116  0.43771193  0.64750127     0.83100
N292        N  0.26735213  0.43811752  0.59839773    -0.77600
C293        C  0.26705497  0.47959308  0.57273929     0.83200
N294        N  0.26484251  0.52162443  0.59765407    -0.79400
C295        C  0.16526958  0.45714937  0.94239683     0.80600
N296        N  0.19068566  0.49728445  0.94632737    -0.77700
C297        C  0.16921853  0.53812944  0.95922111     0.83100
N298        N  0.12160895  0.53911689  0.96705408    -0.77600
C299        C  0.09613264  0.49830713  0.96372246     0.83200
N300        N  0.11818391  0.45769614  0.95035782    -0.79400
O301        O  0.14231626  0.73226114  0.87245790    -0.86100
O302        O  0.36920283  0.81616972  0.74669262    -0.86300
O303        O  0.32854835  0.72762041  0.87465219    -0.87900
O304        O  0.24598747  0.85674028  0.84765017    -0.86700
O305        O  0.21286871  0.88609613  0.77920193    -0.86300
O306        O  0.33781261  0.65484983  0.83738811    -0.87600
O307        O  0.33538578  0.82634851  0.82082045    -0.86100
O308        O  0.21201892  0.76320649  0.90142243    -0.85700
Zr309      Zr  0.26865903  0.77346602  0.83136498     2.84300
O310        O  0.27798394  0.80484709  0.75422883    -1.07700
O311        O  0.23674655  0.69905210  0.81783316    -1.08400
C312        C  0.16772016  0.74951076  0.90676710     1.07000
C313        C  0.36516475  0.83653396  0.78762179     1.07000
C314        C  0.34953532  0.68730393  0.86731903     1.09900
C315        C  0.22765856  0.89116317  0.82304588     1.07700
H316        H  0.34857869  0.72538599  0.78925460     0.33300
O317        O  0.31591962  0.72519582  0.77903307    -1.28600
H318        H  0.17339774  0.80373178  0.81919666     0.33000
O319        O  0.19288412  0.78364547  0.79927149    -1.30300
O320        O  0.34061566  0.73129610  0.62128388    -0.86100
O321        O  0.11053845  0.65215835  0.74874609    -0.87600
O322        O  0.36758479  0.63220643  0.74770020    -0.86200
O323        O  0.24357858  0.85904485  0.66199850    -0.86200
O324        O  0.11889679  0.83245548  0.74708863    -0.85900
O325        O  0.24605999  0.61073124  0.83873178    -0.85700
O326        O  0.23954623  0.60456467  0.64812401    -0.86100
O327        O  0.15809237  0.73379334  0.62096310    -0.85600
O328        O  0.27428684  0.57644713  0.71622297    -0.86600
O329        O  0.14793369  0.80627187  0.65835920    -0.85800
O330        O  0.39633990  0.70034798  0.71360303    -0.86200
O331        O  0.17485110  0.64950044  0.85055273    -0.85900
O332        O  0.08978210  0.76435873  0.78087300    -0.85600
O333        O  0.31513837  0.82114957  0.64832678    -0.86000
O334        O  0.27243448  0.69599101  0.59366530    -0.86300
O335        O  0.14447687  0.63950251  0.67497378    -0.87600
Zr336      Zr  0.32529462  0.75571460  0.70349149     2.83100
Zr337      Zr  0.15933988  0.70859803  0.79017711     2.83500
Zr338      Zr  0.28470244  0.64770657  0.77105064     2.84100
Zr339      Zr  0.20190380  0.81587971  0.72384052     2.83400
Zr340      Zr  0.21606973  0.68732746  0.66485968     2.84200
O341        O  0.17042200  0.73915066  0.71448230    -1.08200
O342        O  0.29270589  0.67979115  0.69544875    -1.07700
C343        C  0.31617720  0.71147390  0.58772191     1.07000
C344        C  0.11375214  0.63138842  0.70813708     1.09600
C345        C  0.40181200  0.65667832  0.72903889     1.07200
C346        C  0.28170807  0.85069558  0.63793207     1.07500
C347        C  0.08464633  0.80796113  0.76585488     1.07100
C348        C  0.20843254  0.62105285  0.86285454     1.06700
C349        C  0.25916305  0.57074809  0.67245422     1.07100
C350        C  0.13783939  0.77452033  0.62709933     1.06600
H351        H  0.19558217  0.62405202  0.74311727     0.33300
O352        O  0.20754571  0.65617930  0.74248832    -1.29300
H353        H  0.24574217  0.77284200  0.64208261     0.33300
O354        O  0.24712651  0.76288407  0.67477278    -1.30700
C355        C  0.72313530  0.43575605  0.35164343     0.80600
N356        N  0.72259951  0.47817822  0.32698213    -0.77700
C357        C  0.72208532  0.52108790  0.35082829     0.83100
N358        N  0.72159070  0.52067456  0.39985740    -0.77600
C359        C  0.72121622  0.47924066  0.42543632     0.83200
N360        N  0.72261026  0.43718329  0.40071210    -0.79400
C361        C  0.83805134  0.50124207  0.07330478     0.80600
N362        N  0.80830135  0.46649834  0.05976994    -0.77700
C363        C  0.82498141  0.42239367  0.05190701     0.83100
N364        N  0.87154357  0.41263491  0.05875012    -0.77600
C365        C  0.90141838  0.44739767  0.07313226     0.83200
N366        N  0.88438885  0.49172449  0.08123089    -0.79400
C367        C  0.53789519  0.62722918  0.27347421     0.80600
N368        N  0.53749486  0.57814558  0.27336734    -0.77700
C369        C  0.49593056  0.55259962  0.27190452     0.83100
N370        N  0.45405409  0.57732946  0.26915842    -0.77600
C371        C  0.45292051  0.62628183  0.26913954     0.83200
N372        N  0.49516305  0.65090041  0.27165484    -0.79400
C373        C  0.52357070  0.92801210  0.09855830     0.80600
N374        N  0.56193663  0.93560724  0.12682967    -0.77700
C375        C  0.55648829  0.93383379  0.17487640     0.83100
N376        N  0.51402262  0.92256092  0.19403164    -0.77600
C377        C  0.47638256  0.91530420  0.16571018     0.83200
N378        N  0.48124452  0.91733378  0.11840660    -0.79400
O379        O  0.74415483  0.85285804  0.15206782    -0.86100
O380        O  0.83053834  0.72573359  0.37934213    -0.86300
O381        O  0.74112684  0.86088099  0.33268020    -0.87900
O382        O  0.87115241  0.82951246  0.25585665    -0.86700
O383        O  0.89956249  0.76148632  0.22114742    -0.86300
O384        O  0.66879712  0.82443757  0.34673157    -0.87600
O385        O  0.84257643  0.79815382  0.34279363    -0.86100
O386        O  0.77773151  0.88126683  0.22084662    -0.85700
Zr387      Zr  0.78761198  0.81244863  0.27854036     2.84300
O388        O  0.81712934  0.73522214  0.28743144    -1.07700
O389        O  0.71346081  0.79664849  0.24825396    -1.08400
C390        C  0.76302609  0.88664992  0.17693498     1.07000
C391        C  0.85305950  0.76487182  0.37229191     1.07000
C392        C  0.70046084  0.85692320  0.35352054     1.09900
C393        C  0.90538402  0.80515812  0.23660085     1.07700
H394        H  0.73929664  0.77461782  0.36166903     0.33300
O395        O  0.73938090  0.76264665  0.32948943    -1.28600
H396        H  0.81620207  0.80065042  0.18248962     0.33000
O397        O  0.79628291  0.78090952  0.20230051    -1.30300
O398        O  0.74519060  0.60266150  0.35042338    -0.86100
O399        O  0.65698682  0.73434104  0.12713342    -0.87600
O400        O  0.64557939  0.72738049  0.38023480    -0.86200
O401        O  0.87359921  0.64683775  0.25399456    -0.86200
O402        O  0.84391821  0.72770743  0.12770154    -0.85900
O403        O  0.62257125  0.81910837  0.26026123    -0.85700
O404        O  0.61941907  0.62913013  0.25126581    -0.86100
O405        O  0.74617456  0.60217839  0.16915243    -0.85600
O406        O  0.59097256  0.69699582  0.28655224    -0.86600
O407        O  0.82050343  0.63638859  0.16188701    -0.85800
O408        O  0.71380563  0.69288883  0.40793033    -0.86200
O409        O  0.66518271  0.83310748  0.19169429    -0.85900
O410        O  0.77520168  0.76049610  0.09897990    -0.85600
O411        O  0.83550644  0.63258172  0.32545463    -0.86000
O412        O  0.71058715  0.57535561  0.28179936    -0.86300
O413        O  0.64548784  0.66062052  0.16143800    -0.87600
Zr414      Zr  0.76867496  0.68550657  0.33633175     2.83100
Zr415      Zr  0.72080003  0.77110992  0.17003729     2.83500
Zr416      Zr  0.66181075  0.75308201  0.29862399     2.84100
Zr417      Zr  0.82858122  0.70577291  0.21119452     2.83400
Zr418      Zr  0.70081846  0.64714311  0.22705987     2.84200
O419        O  0.75189064  0.69516544  0.17876415    -1.08200
O420        O  0.69309173  0.67692993  0.30438598    -1.07700
C421        C  0.72604256  0.56908353  0.32540980     1.07000
C422        C  0.63337107  0.69602555  0.13473933     1.09600
C423        C  0.66999343  0.70765360  0.41374914     1.07200
C424        C  0.86533235  0.62286653  0.29207792     1.07500
C425        C  0.81898910  0.74578985  0.09344149     1.07100
C426        C  0.63551392  0.84466048  0.22451747     1.06700
C427        C  0.58551125  0.65332476  0.27064354     1.07100
C428        C  0.78826870  0.60581124  0.15128584     1.06600
H429        H  0.63767227  0.72748052  0.21290659     0.33300
O430        O  0.67062366  0.72514105  0.22171582    -1.30500
H431        H  0.78653266  0.62474192  0.25672889     0.33300
O432        O  0.77616869  0.65733529  0.25789049    -1.30700
C433        C  0.64307433  0.70517809  0.54641813     0.80600
N434        N  0.59406455  0.70530965  0.54507639    -0.77700
C435        C  0.56944480  0.70361195  0.50301337     0.83100
N436        N  0.59507622  0.70307168  0.46155658    -0.77600
C437        C  0.64409256  0.70299532  0.46127238     0.83200
N438        N  0.66775881  0.70375326  0.50412266    -0.79400
C439        C  0.95125253  0.80136226  0.54657453     0.80600
N440        N  0.94631570  0.77955265  0.50429990    -0.77700
C441        C  0.94512765  0.80537512  0.46419774     0.83100
N442        N  0.94704878  0.85322566  0.46617656    -0.77600
C443        C  0.95280624  0.87531714  0.50852418     0.83200
N444        N  0.95397429  0.84926991  0.54887858    -0.79400
C445        C  0.53508549  0.63040919  0.72966663     0.80600
N446        N  0.53396863  0.58143049  0.72889202    -0.77700
C447        C  0.49214226  0.55653334  0.72615287     0.83100
N448        N  0.45045232  0.58190318  0.72540004    -0.77600
C449        C  0.44980752  0.63096390  0.72603369     0.83200
N450        N  0.49259121  0.65487018  0.72786902    -0.79400
C451        C  0.51286284  0.93833299  0.89695262     0.80600
N452        N  0.47033336  0.92699535  0.87739345    -0.77700
C453        C  0.46554334  0.92477030  0.82975759     0.83100
N454        N  0.50349721  0.93152521  0.80152948    -0.77600
C455        C  0.54610274  0.94220929  0.82075521     0.83200
N456        N  0.55087933  0.94544323  0.86851674    -0.79400
C457        C  0.71947377  0.43789075  0.65120733     0.80600
N458        N  0.71865001  0.48037853  0.67563037    -0.77700
C459        C  0.71867331  0.52308795  0.65174573     0.83100
N460        N  0.71888964  0.52249044  0.60264733    -0.77600
C461        C  0.71874956  0.48078848  0.57724275     0.83200
N462        N  0.71967038  0.43892797  0.60218684    -0.79400
C463        C  0.89301312  0.49451206  0.96739201     0.80600
N464        N  0.87168612  0.45301593  0.95566835    -0.77700
C465        C  0.82434617  0.45103156  0.94938874     0.83100
N466        N  0.79807720  0.49063404  0.95302366    -0.77600
C467        C  0.81893033  0.53239616  0.96365013     0.83200
N468        N  0.86663551  0.53470084  0.97016404    -0.79400
O469        O  0.84240524  0.73006392  0.87847980    -0.86100
O470        O  0.61737492  0.81783965  0.74867245    -0.86300
O471        O  0.74393500  0.85658810  0.85089929    -0.87900
O472        O  0.66065102  0.73032824  0.88119232    -0.86700
O473        O  0.65064569  0.65615171  0.84730502    -0.86300
O474        O  0.77829849  0.88386401  0.78207508    -0.87600
O475        O  0.65318802  0.83087895  0.82150104    -0.86100
O476        O  0.77418072  0.76532529  0.90583515    -0.85700
Zr477      Zr  0.71823663  0.77517365  0.83449066     2.84300
O478        O  0.66861684  0.72427275  0.78725719    -1.07700
O479        O  0.79479325  0.78194382  0.80291266    -1.08400
C480        C  0.81768319  0.74938219  0.91206580     1.07000
C481        C  0.62508599  0.84188936  0.78689191     1.07000
C482        C  0.76320294  0.89009040  0.82603704     1.09900
C483        C  0.64146704  0.68868012  0.87809042     1.07700
H484        H  0.70312257  0.83681364  0.75336686     0.33300
O485        O  0.71219260  0.80392107  0.75578598    -1.28600
H486        H  0.74677566  0.69035481  0.85784113     0.33000
O487        O  0.74817613  0.69975999  0.82499289    -1.30300
O488        O  0.64336077  0.72931214  0.62804045    -0.86100
O489        O  0.86530332  0.63866019  0.75872844    -0.87600
O490        O  0.74819400  0.84849850  0.65820199    -0.86200
O491        O  0.61675842  0.63127343  0.75496425    -0.86200
O492        O  0.74331219  0.60337752  0.83885079    -0.85900
O493        O  0.87017214  0.82996837  0.74911249    -0.85700
O494        O  0.82977094  0.72501709  0.62504026    -0.86100
O495        O  0.74252865  0.60440774  0.65292313    -0.85600
O496        O  0.84293541  0.79820250  0.66017634    -0.86600
O497        O  0.70919352  0.57628856  0.72181163    -0.85800
O498        O  0.67554134  0.81151707  0.64896225    -0.86200
O499        O  0.89786943  0.76226977  0.78501151    -0.85900
O500        O  0.81491976  0.64164955  0.85203803    -0.85600
O501        O  0.58896386  0.69915933  0.71969326    -0.86000
O502        O  0.71213691  0.69573225  0.59988843    -0.86300
O503        O  0.82588387  0.62486497  0.68818030    -0.87600
Zr504      Zr  0.65992920  0.75392273  0.71036254     2.83100
Zr505      Zr  0.82669107  0.70600221  0.79644815     2.83500
Zr506      Zr  0.78839120  0.81212095  0.72595417     2.84100
Zr507      Zr  0.70014493  0.64698496  0.77812914     2.83400
Zr508      Zr  0.76799570  0.68591548  0.67013419     2.84200
O509        O  0.77596459  0.65831145  0.74805170    -1.08200
O510        O  0.73758012  0.76121708  0.68151806    -1.07700
C511        C  0.66823497  0.71024499  0.59425166     1.07000
C512        C  0.85468866  0.61348880  0.72184578     1.09600
C513        C  0.70935108  0.83908579  0.63545393     1.07200
C514        C  0.58303538  0.65567374  0.73510372     1.07500
C515        C  0.78167167  0.61201815  0.86256532     1.07100
C516        C  0.90383815  0.80580753  0.76888388     1.06700
C517        C  0.85297504  0.76405121  0.63115830     1.07100
C518        C  0.72344115  0.57068427  0.67766392     1.06600
H519        H  0.85140690  0.73143033  0.71043776     0.33300
O520        O  0.81860315  0.73378533  0.71990493    -1.29300
H521        H  0.67195441  0.65848359  0.68271305     0.33300
O522        O  0.69196401  0.67838212  0.70230725    -1.30700
C523        C  0.45459384  0.32637931  0.27634587     0.80600
N524        N  0.49721329  0.30258323  0.27771035    -0.77700
C525        C  0.53943648  0.32719664  0.27760869     0.83100
N526        N  0.53828800  0.37620384  0.27639779    -0.77600
C527        C  0.49640510  0.40101221  0.27585797     0.83200
N528        N  0.45494717  0.37544393  0.27519770    -0.79400
C529        C  0.46962514  0.02704477  0.10954318     0.80600
N530        N  0.43174693  0.01742219  0.13747866    -0.77700
C531        C  0.43692326  0.01630037  0.18534985     0.83100
N532        N  0.47965777  0.02570807  0.20513202    -0.77600
C533        C  0.51745723  0.03439050  0.17708433     0.83200
N534        N  0.51228790  0.03610926  0.12958042    -0.79400
O535        O  0.84213071  0.22804648  0.12526638    -0.86100
O536        O  0.61618741  0.14210719  0.25589264    -0.86300
O537        O  0.74497138  0.09921352  0.15550924    -0.87900
O538        O  0.64976257  0.21474902  0.13536381    -0.86700
O539        O  0.63591618  0.28361407  0.17746942    -0.86300
O540        O  0.78143164  0.07258575  0.22323723    -0.87600
O541        O  0.65065565  0.12901064  0.18239712    -0.86100
O542        O  0.77449393  0.19108497  0.09862012    -0.85700
Zr543      Zr  0.71958780  0.18009356  0.17123983     2.84300
O544        O  0.67711800  0.23074881  0.22312880    -1.07700
O545        O  0.79657100  0.17557989  0.20070278    -1.08400
C546        C  0.81794821  0.20748655  0.09209492     1.07000
C547        C  0.61993707  0.12077758  0.21549665     1.07000
C548        C  0.76545191  0.06628756  0.17979206     1.09900
C549        C  0.62352034  0.24954891  0.14940679     1.07700
H550        H  0.70235228  0.11716540  0.25086376     0.33300
O551        O  0.71307626  0.14971326  0.24962278    -1.28600
H552        H  0.74383194  0.26617505  0.14446211     0.33000
O553        O  0.74664261  0.25764190  0.17749111    -1.30300
O554        O  0.64538157  0.22449759  0.37888331    -0.86100
O555        O  0.86865010  0.31483877  0.24694604    -0.87600
O556        O  0.75620390  0.10620251  0.34475845    -0.86200
O557        O  0.62014955  0.32710606  0.25342109    -0.86200
O558        O  0.73623009  0.35143194  0.16263027    -0.85900
O559        O  0.87268679  0.13110337  0.25051457    -0.85700
O560        O  0.82748737  0.22840868  0.38193758    -0.86100
O561        O  0.74648820  0.35383839  0.35178545    -0.85600
O562        O  0.84296873  0.15656467  0.34502610    -0.86600
O563        O  0.71229521  0.38097895  0.28305313    -0.85800
O564        O  0.68593614  0.14538350  0.36016512    -0.86200
O565        O  0.89806585  0.19961560  0.21460102    -0.85900
O566        O  0.81063688  0.31833247  0.15173774    -0.85600
O567        O  0.59328227  0.25829338  0.28808406    -0.86000
O568        O  0.71328362  0.26084474  0.40578147    -0.86300
O569        O  0.83435738  0.32636329  0.32065395    -0.87600
Zr570      Zr  0.66309567  0.20083609  0.29744471     2.83100
Zr571      Zr  0.82527491  0.25301455  0.20661493     2.83500
Zr572      Zr  0.79111433  0.14513606  0.27706288     2.84100
Zr573      Zr  0.70105613  0.30943476  0.22829214     2.83400
Zr574      Zr  0.76986825  0.27128046  0.33518204     2.84200
O575        O  0.77748618  0.30122756  0.25762339    -1.08200
O576        O  0.74136216  0.19543577  0.32303517    -1.07700
C577        C  0.66986044  0.24473238  0.41207834     1.07000
C578        C  0.86372213  0.33642863  0.28700932     1.09600
C579        C  0.72072609  0.11758573  0.37125940     1.07200
C580        C  0.58708311  0.30210434  0.27316260     1.07500
C581        C  0.77532405  0.34511826  0.13973109     1.07100
C582        C  0.90524109  0.15620112  0.23004619     1.06700
C583        C  0.85018041  0.18901435  0.37664564     1.07100
C584        C  0.72748685  0.38742615  0.32670974     1.06600
H585        H  0.85203719  0.22522000  0.29447406     0.33300
O586        O  0.81949016  0.22392988  0.28373540    -1.29300
H587        H  0.67401214  0.29764024  0.32436265     0.33300
O588        O  0.69367605  0.27783666  0.30432756    -1.30700
C589        C  0.45234986  0.32989990  0.72527995     0.80600
N590        N  0.49528168  0.30641426  0.72615495    -0.77700
C591        C  0.53749509  0.33127399  0.72723000     0.83100
N592        N  0.53599618  0.38030204  0.72681372    -0.77600
C593        C  0.49384220  0.40477800  0.72498425     0.83200
N594        N  0.45249961  0.37894080  0.72487596    -0.79400
C595        C  0.46737012  0.04010897  0.90906804     0.80600
N596        N  0.43070821  0.02907937  0.87987883    -0.77700
C597        C  0.43796613  0.02743106  0.83225565     0.83100
N598        N  0.48098608  0.03779734  0.81407397    -0.77600
C599        C  0.51721260  0.04843288  0.84317954     0.83200
N600        N  0.51040687  0.05059693  0.89043966    -0.79400
C601        C  0.64356919  0.24862750  0.54483031     0.80600
N602        N  0.66804756  0.24913530  0.50241666    -0.77700
C603        C  0.64418756  0.24893899  0.45969234     0.83100
N604        N  0.59515856  0.24877891  0.46010444    -0.77600
C605        C  0.56953871  0.24918485  0.50156176     0.83200
N606        N  0.59441689  0.24845232  0.54364328    -0.79400
C607        C  0.95462816  0.07809645  0.51515862     0.80600
N608        N  0.95695312  0.10234688  0.55681590    -0.77700
C609        C  0.95171658  0.15026532  0.55679612     0.83100
N610        N  0.94221188  0.17337753  0.51596481    -0.77600
C611        C  0.93995959  0.14923445  0.47485239     0.83200
N612        N  0.94530768  0.10179814  0.47447376    -0.79400
O613        O  0.84473234  0.23280957  0.87742343    -0.86100
O614        O  0.61493707  0.15113686  0.75668081    -0.86300
O615        O  0.67054300  0.23741063  0.88671853    -0.87900
O616        O  0.74148404  0.10603310  0.85280705    -0.86700
O617        O  0.77541675  0.07671408  0.78486598    -0.86300
O618        O  0.65711962  0.30997806  0.85078353    -0.87600
O619        O  0.65071034  0.14156408  0.82992618    -0.86100
O620        O  0.77698625  0.19779101  0.90607056    -0.85700
Zr621      Zr  0.72075208  0.19006428  0.83673082     2.84300
O622        O  0.70962789  0.15812722  0.76071561    -1.07700
O623        O  0.75131168  0.26594883  0.82476031    -1.08400
C624        C  0.82049108  0.21309675  0.91138324     1.07000
C625        C  0.61939592  0.13210272  0.79803677     1.07000
C626        C  0.65119114  0.27863526  0.88374116     1.09900
C627        C  0.75996363  0.07150317  0.82835384     1.07700
H628        H  0.63886400  0.23917527  0.79993683     0.33300
O629        O  0.67053925  0.23788884  0.78681647    -1.28600
H630        H  0.81561062  0.16057622  0.82428565     0.33000
O631        O  0.79585015  0.18037422  0.80438665    -1.30300
O632        O  0.64477334  0.22747824  0.62725538    -0.86100
O633        O  0.87553850  0.30992872  0.74669591    -0.87600
O634        O  0.61872757  0.33060101  0.75294265    -0.86200
O635        O  0.74076901  0.09903064  0.67430993    -0.86200
O636        O  0.86828165  0.13086108  0.75239190    -0.85900
O637        O  0.74650884  0.36221548  0.83232359    -0.85700
O638        O  0.74381595  0.35611371  0.65256192    -0.86100
O639        O  0.83518459  0.23212155  0.63282707    -0.85600
O640        O  0.70925813  0.38494285  0.72052190    -0.86600
O641        O  0.84397145  0.15896602  0.66879376    -0.85800
O642        O  0.59120771  0.26255604  0.71750202    -0.86200
O643        O  0.81691037  0.32295831  0.84740151    -0.85900
O644        O  0.89759102  0.20008673  0.78410878    -0.85600
O645        O  0.66737147  0.13421385  0.66355905    -0.86000
O646        O  0.71309249  0.26075464  0.59782485    -0.86300
O647        O  0.83884874  0.32128830  0.67398687    -0.87600
Zr648      Zr  0.66126023  0.20637590  0.71046486     2.83100
Zr649      Zr  0.82799427  0.25620203  0.79430973     2.83500
Zr650      Zr  0.70152506  0.31501868  0.77676454     2.84100
Zr651      Zr  0.78517032  0.14674985  0.72966501     2.83400
Zr652      Zr  0.76807503  0.27322785  0.66871895     2.84200
O653        O  0.81285029  0.22409516  0.72034802    -1.08200
O654        O  0.69273970  0.28225729  0.70132918    -1.07700
C655        C  0.66924450  0.24559069  0.59274929     1.07000
C656        C  0.87114260  0.32934834  0.70539806     1.09600
C657        C  0.58532458  0.30616921  0.73269457     1.07200
C658        C  0.69949592  0.10265308  0.65499577     1.07500
C659        C  0.90269984  0.15607730  0.76990354     1.07100
C660        C  0.78545774  0.35523974  0.85524989     1.06700
C661        C  0.72424038  0.39015636  0.67676172     1.07100
C662        C  0.85751346  0.19299253  0.64154982     1.06600
H663        H  0.78992424  0.33776883  0.74474244     0.33300
O664        O  0.77772130  0.30572861  0.74575338    -1.29300
H665        H  0.73774745  0.18388356  0.64623591     0.33300
O666        O  0.73819350  0.19643159  0.67817743    -1.30700
O667        O  0.14760793  0.22949887  0.11983357    -0.86100
O668        O  0.36420740  0.13479634  0.26034563    -0.86300
O669        O  0.33338928  0.21903510  0.11747824    -0.87900
O670        O  0.24705796  0.10174381  0.14940629    -0.86700
O671        O  0.21030272  0.07697006  0.21782832    -0.86300
O672        O  0.34939807  0.29244077  0.15086243    -0.87600
O673        O  0.32675558  0.11986732  0.18897918    -0.86100
O674        O  0.21501991  0.19108246  0.09457670    -0.85700
Zr675      Zr  0.27216980  0.18289289  0.16507343     2.84300
O676        O  0.27619355  0.15769049  0.24392298    -1.07700
O677        O  0.24508457  0.25973338  0.17345670    -1.08400
C678        C  0.17173626  0.20738282  0.08778800     1.07000
C679        C  0.35402411  0.10868064  0.22414327     1.07000
C680        C  0.35685691  0.25814824  0.12105494     1.09900
C681        C  0.22662391  0.06929600  0.17454728     1.07700
H682        H  0.35646536  0.22707381  0.20506322     0.33300
O683        O  0.32375986  0.23008428  0.21491323    -1.28600
H684        H  0.17509034  0.15951385  0.17540231     0.33000
O685        O  0.19512259  0.17953869  0.19486465    -1.30300
O686        O  0.34193070  0.22972762  0.37494065    -0.86100
O687        O  0.12526518  0.32413428  0.23348631    -0.87600
O688        O  0.37642522  0.32501321  0.24642305    -0.86200
O689        O  0.23344298  0.10911084  0.33889959    -0.86200
O690        O  0.11895615  0.13336294  0.24645950    -0.85900
O691        O  0.26311240  0.34878831  0.14921001    -0.85700
O692        O  0.25029376  0.35873044  0.34202940    -0.86100
O693        O  0.15082407  0.24872451  0.36175038    -0.85600
O694        O  0.28786126  0.38323072  0.27393487    -0.86600
O695        O  0.13562584  0.17741648  0.32432080    -0.85800
O696        O  0.39955209  0.25767634  0.28602077    -0.86200
O697        O  0.19275245  0.30931245  0.13481277    -0.85900
O698        O  0.09350025  0.20191814  0.21042018    -0.85600
O699        O  0.30800728  0.14169461  0.35057395    -0.86000
O700        O  0.27462632  0.26885099  0.39900829    -0.86300
O701        O  0.16044145  0.33857055  0.30638838    -0.87600
Zr702      Zr  0.32631443  0.20415472  0.29359756     2.83100
Zr703      Zr  0.16622867  0.25702447  0.19908638     2.83500
Zr704      Zr  0.29664063  0.30986068  0.21811295     2.84100
Zr705      Zr  0.19954581  0.15029115  0.27195125     2.83400
Zr706      Zr  0.22163768  0.27997906  0.32465075     2.84200
O707        O  0.17514149  0.22951526  0.27543170    -1.08200
O708        O  0.29903940  0.28193010  0.29579866    -1.07700
C709        C  0.31744578  0.25145251  0.40711966     1.07000
C710        C  0.13269416  0.34896535  0.27127691     1.09600
C711        C  0.40750612  0.30068694  0.26955999     1.07200
C712        C  0.27226140  0.11536356  0.36231604     1.07500
C713        C  0.08627524  0.15835153  0.22628693     1.07100
C714        C  0.22724761  0.33726171  0.12311543     1.06700
C715        C  0.27185978  0.39069904  0.31761629     1.07100
C716        C  0.12446886  0.21270360  0.35152150     1.06600
H717        H  0.21183142  0.33988504  0.24064374     0.33300
O718        O  0.21905668  0.30670406  0.24481119    -1.29300
H719        H  0.24306937  0.19495024  0.35425566     0.33300
O720        O  0.24688235  0.20217718  0.32102824    -1.30700
C721        C  0.93538147  0.17263412  0.59810566    -0.12900
C722        C  0.90252371  0.18647912  0.62071302    -0.14400
C723        C  0.55780880  0.06940726  0.82379695    -0.12900
C724        C  0.58696352  0.09637423  0.80992011    -0.14400
C725        C  0.88841665  0.18130404  0.40759685    -0.12900
C726        C  0.91768385  0.17049740  0.43587832    -0.14400
C727        C  0.49409554  0.06634719  0.03565801    -0.13000
C728        C  0.46379631  0.03432716  0.05874782     0.09200
C729        C  0.42957064  0.00901378  0.03282846    -0.13000
C730        C  0.42828678  0.01305514  0.98346164    -0.13000
C731        C  0.46122053  0.04243121  0.96032018     0.09200
C732        C  0.49266029  0.07053723  0.98679702    -0.13000
H733        H  0.51981843  0.08731559  0.05525003     0.13200
H734        H  0.40576509  0.98438281  0.05040334     0.13200
H735        H  0.40383124  0.99110872  0.96335544     0.13200
H736        H  0.51760296  0.09431959  0.96959564     0.13200
C737        C  0.39716301  0.02921527  0.21225988    -0.12900
C738        C  0.37352854  0.06251232  0.22302109    -0.14400
C739        C  0.55826589  0.05516515  0.19679867    -0.12900
C740        C  0.58804082  0.08321151  0.20722881    -0.14400
C741        C  0.79423853  0.38521438  0.89420733    -0.12900
C742        C  0.80523083  0.41220550  0.92473958    -0.14400
C743        C  0.79657624  0.57175252  0.94356626    -0.12900
C744        C  0.78584713  0.59141130  0.90782624    -0.14400
C745        C  0.60559480  0.88789539  0.78846216    -0.12900
C746        C  0.58507248  0.92390507  0.79631995    -0.14400
C747        C  0.49214819  0.50287104  0.72520631    -0.12900
C748        C  0.49285800  0.45844680  0.72483715    -0.14400
C749        C  0.96961529  0.95048307  0.55195038    -0.13000
C750        C  0.95358299  0.92708668  0.51084231     0.09200
C751        C  0.93861175  0.95347978  0.47143804    -0.13000
C752        C  0.93956949  0.00256724  0.47301004    -0.13000
C753        C  0.95544626  0.02621273  0.51405529     0.09200
C754        C  0.97055690  0.99992011  0.55355325    -0.13000
H755        H  0.98193614  0.93063028  0.58254232     0.13200
H756        H  0.92599611  0.93630455  0.43933350     0.13200
H757        H  0.92750344  0.02186996  0.44196877     0.13200
H758        H  0.98329209  0.01746755  0.58539735     0.13200
C759        C  0.93102724  0.77809226  0.58529226    -0.12900
C760        C  0.89677468  0.76801348  0.60764367    -0.14400
C761        C  0.89478331  0.77189395  0.39826153    -0.12900
C762        C  0.92576667  0.78413727  0.42386706    -0.14400
C763        C  0.49195886  0.90115335  0.02206341    -0.13000
C764        C  0.52660808  0.92713761  0.04680831     0.09200
C765        C  0.55961244  0.95475298  0.02170688    -0.13000
C766        C  0.55596917  0.95824282  0.97223264    -0.13000
C767        C  0.51913637  0.93439084  0.94823528     0.09200
C768        C  0.48801188  0.90505646  0.97344015    -0.13000
H769        H  0.46666940  0.87866630  0.04044914     0.13200
H770        H  0.58653700  0.97504095  0.04033445     0.13200
H771        H  0.58065321  0.98068262  0.95301773     0.13200
H772        H  0.46020073  0.88518060  0.95566687     0.13200
C773        C  0.59571202  0.92315462  0.20336320    -0.12900
C774        C  0.61676261  0.89074077  0.22013971    -0.14400
C775        C  0.49614151  0.49899732  0.27298939    -0.12900
C776        C  0.49608018  0.45461640  0.27425230    -0.14400
C777        C  0.81813770  0.54309650  0.09148313    -0.12900
C778        C  0.80147149  0.57284044  0.11630726    -0.14400
C779        C  0.77827394  0.36509280  0.09413957    -0.12900
C780        C  0.79294896  0.38582476  0.06061360    -0.14400
C781        C  0.71932348  0.48076726  0.52354989    -0.12900
C782        C  0.72012363  0.48004809  0.47911322    -0.14400
C783        C  0.39637698  0.87437730  0.79753061    -0.12900
C784        C  0.42514797  0.90252605  0.81046620    -0.14400
C785        C  0.01901638  0.53676165  0.98690152    -0.13000
C786        C  0.04425514  0.49827805  0.96747908     0.09200
C787        C  0.01942234  0.45896239  0.94956902    -0.13000
C788        C  0.97050142  0.45800222  0.95043369    -0.13000
C789        C  0.94490639  0.49631718  0.96926151     0.09200
C790        C  0.96932441  0.53578181  0.98777509    -0.13000
H791        H  0.03755252  0.56740118  0.00107699     0.13200
H792        H  0.03762651  0.42877276  0.93406761     0.13200
H793        H  0.95285943  0.42716861  0.93554990     0.13200
H794        H  0.95011812  0.56567786  0.00263315     0.13200
C795        C  0.19144797  0.57932896  0.94256230    -0.12900
C796        C  0.20367233  0.60124425  0.90859753    -0.14400
C797        C  0.10068803  0.78671439  0.59619713    -0.12900
C798        C  0.07507481  0.80340955  0.56719744    -0.14400
C799        C  0.47152848  0.70495376  0.50115121    -0.12900
C800        C  0.51587836  0.70413513  0.50221167    -0.14400
C801        C  0.37904874  0.07062393  0.78710361    -0.12900
C802        C  0.39971067  0.03730933  0.80245872    -0.14400
C803        C  0.19709323  0.38968764  0.88962147    -0.12900
C804        C  0.18519172  0.41828576  0.91831263    -0.14400
C805        C  0.04984630  0.96744272  0.43009001    -0.13000
C806        C  0.06500043  0.94398615  0.47151208     0.09200
C807        C  0.08399287  0.97010611  0.50932547    -0.13000
C808        C  0.08408288  0.01910846  0.50766575    -0.13000
C809        C  0.06478852  0.04291875  0.46830210     0.09200
C810        C  0.04966238  0.01695738  0.42852016    -0.13000
H811        H  0.03561332  0.94775681  0.40018630     0.13200
H812        H  0.09715046  0.95283601  0.54112478     0.13200
H813        H  0.09729851  0.03823954  0.53838999     0.13200
H814        H  0.03515703  0.03470866  0.39759336     0.13200
C815        C  0.07339991  0.18293044  0.56088337    -0.12900
C816        C  0.10098454  0.19102417  0.59168698    -0.14400
C817        C  0.07883587  0.21080773  0.37207081    -0.12900
C818        C  0.04853185  0.19683265  0.39783471    -0.14400
C819        C  0.51569226  0.25028140  0.50053844    -0.12900
C820        C  0.47118720  0.25154436  0.49900522    -0.14400
C821        C  0.43619596  0.89254443  0.18385374    -0.12900
C822        C  0.40696658  0.86365547  0.19291579    -0.14400
C823        C  0.09685049  0.77554679  0.38667638    -0.12900
C824        C  0.06222628  0.78919911  0.40605540    -0.14400
C825        C  0.02703857  0.46556464  0.10916770    -0.13000
C826        C  0.04999081  0.43431468  0.07771375     0.09200
C827        C  0.02373293  0.39986291  0.05321159    -0.13000
C828        C  0.97428721  0.40120282  0.05504532    -0.13000
C829        C  0.95149364  0.43718790  0.08108432     0.09200
C830        C  0.97795761  0.46716273  0.11066520    -0.13000
H831        H  0.04688997  0.49122891  0.12997300     0.13200
H832        H  0.04102236  0.37502442  0.02936906     0.13200
H833        H  0.95416138  0.37715364  0.03266823     0.13200
H834        H  0.96085416  0.49392199  0.13250601     0.13200
C835        C  0.18228507  0.53796301  0.08400336    -0.12900
C836        C  0.19287539  0.56835229  0.11116758    -0.14400
C837        C  0.22437847  0.35674613  0.07691883    -0.12900
C838        C  0.20738355  0.38008568  0.04612294    -0.14400
C839        C  0.26861628  0.47880213  0.51876747    -0.12900
C840        C  0.27007848  0.47809782  0.47416312    -0.14400
C841        C  0.11095539  0.39381483  0.27348104    -0.12900
C842        C  0.08653658  0.42536432  0.28680304    -0.14400
C843        C  0.89418192  0.37485558  0.29557066    -0.12900
C844        C  0.92508369  0.40055474  0.30806901    -0.14400
C845        C  0.90659694  0.54210662  0.30402566    -0.12900
C846        C  0.88645534  0.57793637  0.29504646    -0.14400
C847        C  0.06646714  0.55951290  0.31625576    -0.12900
C848        C  0.09405645  0.58793630  0.30156529    -0.14400
C849        C  0.99728009  0.00354189  0.22893428    -0.12900
C850        C  0.99731278  0.95890813  0.23020543    -0.14400
C851        C  0.93982146  0.49535464  0.47791685    -0.13000
C852        C  0.97488378  0.52228773  0.45465280     0.09200
C853        C  0.00547721  0.55131889  0.48088691    -0.13000
C854        C  0.00264974  0.55211892  0.52979975    -0.13000
C855        C  0.96948701  0.52351216  0.55359859     0.09200
C856        C  0.93717087  0.49589181  0.52755030    -0.13000
H857        H  0.91575326  0.47291687  0.45788322     0.13200
H858        H  0.03188761  0.57339685  0.46361673     0.13200
H859        H  0.02721461  0.57472131  0.54904629     0.13200
H860        H  0.91140552  0.47360304  0.54548069     0.13200
C861        C  0.05485602  0.56250976  0.69230973    -0.12900
C862        C  0.08238317  0.59336080  0.70063694    -0.14400
C863        C  0.87443417  0.56756504  0.71820027    -0.12900
C864        C  0.89601259  0.53345840  0.70564600    -0.14400
C865        C  0.99754501  0.38119292  0.46955908    -0.13000
C866        C  0.02683588  0.41208360  0.44391301     0.09200
C867        C  0.06014476  0.44063986  0.46766166    -0.13000
C868        C  0.06099329  0.44147255  0.51717074    -0.13000
C869        C  0.02879167  0.41342481  0.54270932     0.09200
C870        C  0.99870695  0.38167672  0.51871555    -0.13000
H871        H  0.97242420  0.35809247  0.45165157     0.13200
H872        H  0.08295370  0.46472963  0.44812122     0.13200
H873        H  0.08437340  0.46615384  0.53528905     0.13200
H874        H  0.97446961  0.35874776  0.53795707     0.13200
C875        C  0.09138582  0.42527650  0.69973315    -0.12900
C876        C  0.11410093  0.39387707  0.71639660    -0.14400
C877        C  0.93298995  0.39213683  0.68003986    -0.12900
C878        C  0.90403858  0.36476362  0.69363152    -0.14400
C879        C  0.99445873  0.00439607  0.77218607    -0.12900
C880        C  0.99377869  0.96006685  0.77175171    -0.14400
C881        C  0.29187830  0.07368137  0.43977822    -0.12900
C882        C  0.27509130  0.09499634  0.40769384    -0.14400
C883        C  0.32607008  0.91855640  0.40239238    -0.12900
C884        C  0.31007766  0.88820580  0.37782671    -0.14400
C885        C  0.67842920  0.04184011  0.58941020    -0.12900
C886        C  0.68938794  0.07013650  0.61865264    -0.14400
C887        C  0.68667466  0.88196632  0.55808387    -0.12900
C888        C  0.70248026  0.85950659  0.59020276    -0.14400
C889        C  0.42670889  0.27212648  0.06253737    -0.12900
C890        C  0.39616339  0.26322174  0.09039007    -0.14400
C891        C  0.44267801  0.27412272  0.90198067    -0.12900
C892        C  0.40670819  0.26626846  0.88105176    -0.14400
C893        C  0.58639215  0.69569421  0.11791538    -0.12900
C894        C  0.55029889  0.68570787  0.09870215    -0.14400
C895        C  0.60641644  0.67648328  0.91177985    -0.12900
C896        C  0.58049997  0.66089018  0.94140034    -0.14400
C897        C  0.46291096  0.92918557  0.51421672    -0.13000
C898        C  0.43836434  0.96815957  0.53354388     0.09200
C899        C  0.46349386  0.00429817  0.55674841    -0.13000
C900        C  0.51230229  0.00175374  0.56063945    -0.13000
C901        C  0.53722248  0.96320522  0.54104373     0.09200
C902        C  0.51231817  0.92675631  0.51787961    -0.13000
H903        H  0.44397512  0.90083502  0.49628912     0.13200
H904        H  0.44551004  0.03450591  0.57249773     0.13200
H905        H  0.53042017  0.03034602  0.57902878     0.13200
H906        H  0.53094817  0.89681050  0.50241057     0.13200
C907        C  0.28574525  0.07975691  0.60228305    -0.12900
C908        C  0.29685100  0.05240430  0.57209611    -0.14400
C909        C  0.28476332  0.87159239  0.59256757    -0.12900
C910        C  0.29228519  0.89220685  0.55647851    -0.14400
C911        C  0.22475496  0.98167857  0.97610134    -0.12900
C912        C  0.22516419  0.98079123  0.02051017    -0.14400
C913        C  0.53056583  0.00028287  0.39909881    -0.13000
C914        C  0.55216353  0.02675452  0.43532700     0.09200
C915        C  0.52550025  0.05956626  0.46171867    -0.13000
C916        C  0.47614264  0.06042602  0.45642155    -0.13000
C917        C  0.45431782  0.02842104  0.42487409     0.09200
C918        C  0.48191939  0.00113769  0.39387243    -0.13000
H919        H  0.55097138  0.97645368  0.37670295     0.13200
H920        H  0.54208046  0.08104123  0.48908605     0.13200
H921        H  0.45504785  0.08234719  0.48006447     0.13200
H922        H  0.46568641  0.97765598  0.36796285     0.13200
C923        C  0.72058265  0.09959570  0.41808527    -0.12900
C924        C  0.70952185  0.07772641  0.45246547    -0.14400
C925        C  0.68084780  0.92076024  0.41744111    -0.12900
C926        C  0.69044282  0.89064064  0.38926181    -0.14400
C927        C  0.76576845  0.97893663  0.02492203    -0.12900
C928        C  0.76510311  0.97937734  0.98050943    -0.14400
C929        C  0.60101692  0.50401071  0.01996168    -0.13000
C930        C  0.56841942  0.52862622  0.04817746     0.09200
C931        C  0.54497044  0.50514447  0.08555229    -0.13000
C932        C  0.54902718  0.45587370  0.08996539    -0.13000
C933        C  0.57706296  0.43070038  0.05735720     0.09200
C934        C  0.60587786  0.45551084  0.02503872    -0.13000
H935        H  0.62118175  0.52184195  0.99241379     0.13200
H936        H  0.52059264  0.52411061  0.10857644     0.13200
H937        H  0.52713721  0.43736451  0.11566748     0.13200
H938        H  0.62944668  0.43702141  0.00078906     0.13200
C939        C  0.54619963  0.27073522  0.11028602    -0.12900
C940        C  0.57635267  0.25191247  0.13282962    -0.14400
C941        C  0.61924337  0.28974205  0.92036522    -0.12900
C942        C  0.59555483  0.29878456  0.95407236    -0.14400
C943        C  0.01734145  0.20565800  0.00074539    -0.12900
C944        C  0.97288784  0.20614917  0.00226295    -0.14400
C945        C  0.48053759  0.49145820  0.94600937    -0.13000
C946        C  0.46110229  0.51481962  0.98562557     0.09200
C947        C  0.44692259  0.48835144  0.02536779    -0.13000
C948        C  0.45204030  0.43946891  0.02571311    -0.13000
C949        C  0.47092496  0.41578117  0.98606493     0.09200
C950        C  0.48552095  0.44209624  0.94626366    -0.13000
H951        H  0.49189112  0.51126698  0.91501879     0.13200
H952        H  0.43158119  0.50531051  0.05637611     0.13200
H953        H  0.44013112  0.42028270  0.05689056     0.13200
H954        H  0.50011679  0.42454192  0.91523122     0.13200
C955        C  0.42025651  0.65743633  0.07001926    -0.12900
C956        C  0.39161319  0.67336242  0.09659388    -0.14400
C957        C  0.39307870  0.67865441  0.89019337    -0.12900
C958        C  0.42737091  0.66322168  0.90944431    -0.14400
C959        C  0.97150544  0.74961536  0.00138901    -0.12900
C960        C  0.01591957  0.74981848  0.00040845    -0.14400
loop_ 
_geom_bond_atom_site_label_1 
_geom_bond_atom_site_label_2 
_geom_bond_distance 
_geom_bond_site_symmetry_2 
_ccdc_geom_bond_type 
C1            N2   1.380       .  A
C1            N6   1.377       .  A
C1          C312   1.528       .  S
N2            C3   1.372       .  A
C3            N4   1.371   1_556  A
C3          C960   1.510   1_556  S
N4            C5   1.379       .  A
C5            N6   1.376   1_554  A
C5          C168   1.527       .  S
C7            N8   1.358       .  A
C7           N12   1.355   1_556  A
C7          C946   1.464       .  S
N8            C9   1.356       .  A
C9           N10   1.341       .  A
C9          C958   1.397       .  S
N10          C11   1.338   1_556  A
C11          N12   1.347       .  A
C11         C955   1.400       .  S
C13          N14   1.384       .  A
C13          N18   1.376       .  A
C13         C546   1.537       .  S
N14          C15   1.375       .  A
C15          N16   1.369   1_554  A
C15         C944   1.512       .  S
N16          C17   1.376       .  A
C17          N18   1.379   1_556  A
C17         C624   1.523       .  S
C19          N20   1.348       .  A
C19          N24   1.356       .  A
C19         C933   1.458       .  S
N20          C21   1.338   1_554  A
C21          N22   1.343   1_556  A
C21         C942   1.400       .  S
N22          C23   1.352       .  A
C23          N24   1.360       .  A
C23         C939   1.398       .  S
C25          N26   1.379       .  A
C25          N30   1.375       .  A
C25         C390   1.519       .  S
N26          C27   1.370       .  A
C27          N28   1.370   1_565  A
C27         C927   1.508       .  S
N28          C29   1.380       .  A
C29          N30   1.373   1_545  A
C29         C548   1.521       .  S
C31          N32   1.353   1_545  A
C31          N36   1.356       .  A
C31         C924   1.397       .  S
N32          C33   1.347       .  A
C33          N34   1.342       .  A
C33         C925   1.407       .  S
N34          C35   1.350   1_565  A
C35          N36   1.350       .  A
C35         C914   1.452       .  S
C37          N38   1.381       .  A
C37          N42   1.378   1_545  A
C37         C234   1.533       .  S
N38          C39   1.373   1_545  A
C39          N40   1.369       .  A
C39         C911   1.508       .  S
N40          C41   1.377       .  A
C41          N42   1.379       .  A
C41         C315   1.527       .  S
C43          N44   1.348       .  A
C43          N48   1.353       .  A
C43         C910   1.395       .  S
N44          C45   1.343   1_565  A
C45          N46   1.347       .  A
C45         C908   1.401       .  S
N46          C47   1.353   1_545  A
C47          N48   1.352       .  A
C47         C898   1.459       .  S
C49          N50   1.379       .  A
C49          N54   1.380       .  A
C49         C425   1.529       .  S
N50          C51   1.371       .  A
C51          N52   1.371   1_554  A
C51         C959   1.509       .  S
N52          C53   1.379       .  A
C53          N54   1.379   1_556  A
C53         C480   1.532       .  S
C55          N56   1.347       .  A
C55          N60   1.351       .  A
C55         C894   1.387       .  S
N56          C57   1.344   1_554  A
C57          N58   1.350       .  A
C57         C896   1.408       .  S
N58          C59   1.356   1_556  A
C59          N60   1.348       .  A
C59         C930   1.456       .  S
C61          N62   1.373       .  A
C61          N66   1.383       .  A
C61         C270   1.524       .  S
N62          C63   1.372   1_556  A
C63          N64   1.379       .  A
C63         C678   1.516       .  S
N64          C65   1.369   1_554  A
C65          N66   1.374       .  A
C65         C943   1.512   1_556  S
C67          N68   1.349       .  A
C67          N72   1.355       .  A
C67         C891   1.401       .  S
N68          C69   1.343   1_556  A
C69          N70   1.346       .  A
C69         C889   1.405       .  S
N70          C71   1.352   1_554  A
C71          N72   1.354       .  A
C71         C949   1.464       .  S
C73          N74   1.381       .  A
C73          N78   1.379       .  A
C73         C482   1.537       .  S
N74          C75   1.373       .  A
C75          N76   1.370   1_565  A
C75         C928   1.508       .  S
N76          C77   1.378       .  A
C77          N78   1.381   1_545  A
C77         C627   1.530       .  S
C79          N80   1.340   1_545  A
C79          N84   1.341       .  A
C79         C885   1.397       .  S
N80          C81   1.347       .  A
C81          N82   1.359       .  A
C81         C887   1.400       .  S
N82          C83   1.358       .  A
C83          N84   1.350   1_565  A
C83         C901   1.461       .  S
C85          N86   1.379       .  A
C85          N90   1.378   1_545  A
C85         C681   1.533       .  S
N86          C87   1.370   1_545  A
C87          N88   1.370       .  A
C87         C912   1.508       .  S
N88          C89   1.378       .  A
C89          N90   1.381       .  A
C89         C170   1.526       .  S
C91          N92   1.346       .  A
C91          N96   1.340       .  A
C91         C883   1.400       .  S
N92          C93   1.355   1_565  A
C93          N94   1.352       .  A
C93         C917   1.452       .  S
N94          C95   1.354       .  A
C95          N96   1.345   1_545  A
C95         C881   1.390       .  S
C97          N98   1.376       .  A
C97         N102   1.378       .  A
C97         C659   1.523       .  S
N98          C99   1.368       .  A
C99         N100   1.372   1_655  A
C99         C879   1.505       .  S
N100        C101   1.381       .  A
C101        N102   1.377   1_455  A
C101        C236   1.530       .  S
C103        N104   1.343       .  A
C103        N108   1.342   1_655  A
C103        C877   1.397       .  S
N104        C105   1.350   1_655  A
C105        N106   1.355       .  A
C105        C869   1.454       .  S
N106        C107   1.357       .  A
C107        N108   1.347       .  A
C107        C875   1.398       .  S
C109        N110   1.375       .  A
C109        N114   1.379   1_455  A
C109        C347   1.523       .  S
N110        C111   1.368   1_455  A
C111        N112   1.374       .  A
C111        C880   1.505       .  S
N112        C113   1.381       .  A
C113        N114   1.377       .  A
C113        C516   1.535       .  S
C115        N116   1.359       .  A
C115        N120   1.349       .  A
C115        C864   1.398       .  S
N116        C117   1.355       .  A
C117        N118   1.349   1_655  A
C117        C855   1.457       .  S
N118        C119   1.341       .  A
C119        N120   1.343   1_455  A
C119        C861   1.399       .  S
C121        N122   1.382       .  A
C121        N126   1.383   1_455  A
C121        C204   1.545       .  S
N122        C123   1.375   1_455  A
C123        N124   1.375       .  A
C123        C850   1.520       .  S
N124        C125   1.382       .  A
C125        N126   1.384       .  A
C125        C393   1.545       .  S
C127        N128   1.348       .  A
C127        N132   1.341   1_455  A
C127        C847   1.404       .  S
N128        C129   1.356   1_455  A
C129        N130   1.351       .  A
C129        C852   1.455       .  S
N130        C131   1.352       .  A
C131        N132   1.345       .  A
C131        C845   1.388       .  S
C133        N134   1.379       .  A
C133        N138   1.381       .  A
C133        C582   1.528       .  S
N134        C135   1.377   1_655  A
C135        N136   1.384       .  A
C135        C713   1.533       .  S
N136        C137   1.373   1_455  A
C137        N138   1.371       .  A
C137        C849   1.520       .  S
C139        N140   1.352       .  A
C139        N144   1.347       .  A
C139        C842   1.392       .  S
N140        C141   1.350       .  A
C141        N142   1.352   1_455  A
C141        C866   1.452       .  S
N142        C143   1.348       .  A
C143        N144   1.344   1_655  A
C143        C844   1.398       .  S
C145        N146   1.378       .  A
C145        N150   1.378       .  A
C145        C206   1.519       .  S
N146        C147   1.373       .  A
C147        N148   1.386       .  A
C147        C715   1.536       .  S
N148        C149   1.376       .  A
C149        N150   1.370       .  A
C149        C840   1.518       .  S
C151        N152   1.348       .  A
C151        N156   1.354       .  A
C151        C826   1.455       .  S
N152        C153   1.341       .  A
C153        N154   1.344       .  A
C153        C835   1.396       .  S
N154        C155   1.350       .  A
C155        N156   1.358       .  A
C155        C838   1.400       .  S
O157       Zr193   2.450       .  S
O157        C168   1.293       .  A
O158       Zr192   2.407       .  S
O158        C169   1.286       .  A
O159       Zr165   2.471       .  S
O159        C170   1.298       .  A
O160       Zr165   2.431       .  S
O160        C171   1.291       .  A
O161       Zr195   2.401       .  S
O161        C171   1.283       .  A
O162       Zr194   2.524       .  S
O162        C170   1.307       .  A
O163       Zr165   2.426       .  S
O163        C169   1.290       .  A
O164       Zr165   2.548       .  S
O164        C168   1.313       .  A
Zr165       O166   2.386       .  S
Zr165       O167   2.328       .  S
Zr165       O175   2.328       .  S
Zr165       O173   2.355       .  S
O166       Zr192   2.323       .  S
O166       Zr195   2.337       .  S
O167       Zr193   2.333       .  S
O167       Zr194   2.332       .  S
C169        C822   1.399       .  S
C171        C956   1.404       .  S
H172        O173   0.964       .  S
O173       Zr192   2.399       .  S
O173       Zr194   2.317       .  S
H174        O175   0.965       .  S
O175       Zr193   2.361       .  S
O175       Zr195   2.403       .  S
O176       Zr192   2.479       .  S
O176        C199   1.299       .  A
O177       Zr193   2.429       .  S
O177        C200   1.291       .  A
O178       Zr194   2.431       .  S
O178        C201   1.291       .  A
O179       Zr195   2.466       .  S
O179        C202   1.296       .  A
O180       Zr195   2.402       .  S
O180        C203   1.285       .  A
O181       Zr194   2.471       .  S
O181        C204   1.297       .  A
O182       Zr196   2.408       .  S
O182        C205   1.286       .  A
O183       Zr196   2.467       .  S
O183        C206   1.296       .  A
O184       Zr194   2.408       .  S
O184        C205   1.286       .  A
O185       Zr195   2.515       .  S
O185        C206   1.305       .  A
O186       Zr192   2.391       .  S
O186        C201   1.282       .  A
O187       Zr193   2.564       .  S
O187        C204   1.315       .  A
O188       Zr193   2.428       .  S
O188        C203   1.289       .  A
O189       Zr192   2.521       .  S
O189        C202   1.306       .  A
O190       Zr196   2.517       .  S
O190        C199   1.305       .  A
O191       Zr196   2.405       .  S
O191        C200   1.285       .  A
Zr192       O198   2.351       .  S
Zr192       O210   2.315       .  S
Zr193       O197   2.386       .  S
Zr193       O208   2.303       .  S
Zr194       O198   2.390       .  S
Zr194       O208   2.350       .  S
Zr195       O197   2.321       .  S
Zr195       O210   2.322       .  S
Zr196       O197   2.345       .  S
Zr196       O198   2.331       .  S
Zr196       O210   2.319       .  S
Zr196       O208   2.392       .  S
C199        C277   1.527       .  S
C200        C848   1.406       .  S
C201        C884   1.402       .  S
C202        C371   1.522       .  S
C203        C836   1.399       .  S
C205        C823   1.395       .  S
H207        O208   0.962       .  S
H209        O210   0.966       .  S
C211        N212   1.380       .  A
C211        N216   1.384       .  A
C211        C709   1.541       .  S
N212        C213   1.382       .  A
C213        N214   1.378       .  A
C213        C268   1.529       .  S
N214        C215   1.369       .  A
C215        N216   1.375       .  A
C215        C820   1.515       .  S
C217        N218   1.357       .  A
C217        N222   1.351       .  A
C217        C818   1.399       .  S
N218        C219   1.353       .  A
C219        N220   1.347       .  A
C219        C809   1.459       .  S
N220        C221   1.341       .  A
C221        N222   1.346       .  A
C221        C815   1.397       .  S
O223       Zr259   2.439       .  S
O223        C234   1.291       .  A
O224       Zr258   2.384       .  S
O224        C235   1.282       .  A
O225       Zr231   2.435       .  S
O225        C236   1.290       .  A
O226       Zr231   2.409       .  S
O226        C237   1.287       .  A
O227       Zr261   2.424       .  S
O227        C237   1.289       .  A
O228       Zr260   2.564       .  S
O228        C236   1.315       .  A
O229       Zr231   2.448       .  S
O229        C235   1.293       .  A
O230       Zr231   2.572       .  S
O230        C234   1.317       .  A
Zr231       O232   2.390       .  S
Zr231       O233   2.328       .  S
Zr231       O241   2.302       .  S
Zr231       O239   2.361       .  S
O232       Zr258   2.318       .  S
O232       Zr261   2.350       .  S
O233       Zr259   2.327       .  S
O233       Zr260   2.317       .  S
C235        C816   1.401       .  S
C237        C907   1.404       .  S
H238        O239   0.965       .  S
O239       Zr258   2.411       .  S
O239       Zr260   2.332       .  S
H240        O241   0.961       .  S
O241       Zr259   2.354       .  S
O241       Zr261   2.396       .  S
O242       Zr258   2.438       .  S
O242        C265   1.291       .  A
O243       Zr259   2.428       .  S
O243        C266   1.290       .  A
O244       Zr260   2.412       .  S
O244        C267   1.288       .  A
O245       Zr261   2.463       .  S
O245        C268   1.296       .  A
O246       Zr261   2.431       .  S
O246        C269   1.291       .  A
O247       Zr260   2.441       .  S
O247        C270   1.290       .  A
O248       Zr262   2.418       .  S
O248        C271   1.289       .  A
O249       Zr262   2.450       .  S
O249        C272   1.294       .  A
O250       Zr260   2.426       .  S
O250        C271   1.290       .  A
O251       Zr261   2.559       .  S
O251        C272   1.315       .  A
O252       Zr258   2.429       .  S
O252        C267   1.288       .  A
O253       Zr259   2.549       .  S
O253        C270   1.313       .  A
O254       Zr259   2.423       .  S
O254        C269   1.289       .  A
O255       Zr258   2.539       .  S
O255        C268   1.309       .  A
O256       Zr262   2.564       .  S
O256        C265   1.315       .  A
O257       Zr262   2.422       .  S
O257        C266   1.287       .  A
Zr258       O264   2.321       .  S
Zr258       O276   2.320       .  S
Zr259       O263   2.379       .  S
Zr259       O274   2.324       .  S
Zr260       O264   2.373       .  S
Zr260       O274   2.373       .  S
Zr261       O263   2.320       .  S
Zr261       O276   2.328       .  S
Zr262       O263   2.346       .  S
Zr262       O264   2.299       .  S
Zr262       O276   2.330       .  S
Zr262       O274   2.416       .  S
C265        C291   1.530       .  S
C266        C892   1.412       .  S
C267        C876   1.408       .  S
C269        C801   1.405       .  S
C271        C803   1.404       .  S
C272        C589   1.530       .  S
H273        O274   0.964       .  S
H275        O276   0.966       .  S
C277        N278   1.381       .  A
C277        N282   1.377       .  A
N278        C279   1.378       .  A
C279        N280   1.379       .  A
C279        C343   1.534       .  S
N280        C281   1.371       .  A
C281        N282   1.370       .  A
C281        C799   1.507       .  S
C283        N284   1.355       .  A
C283        N288   1.350       .  A
C283        C806   1.457       .  S
N284        C285   1.348       .  A
C285        N286   1.340       .  A
C285        C798   1.399       .  S
N286        C287   1.344       .  A
C287        N288   1.351       .  A
C287        C824   1.384       .  S
C289        N290   1.378       .  A
C289        N294   1.383       .  A
C289        C349   1.533       .  S
N290        C291   1.377       .  A
C291        N292   1.381       .  A
N292        C293   1.372       .  A
C293        N294   1.375       .  A
C293        C839   1.518       .  S
C295        N296   1.341       .  A
C295        N300   1.343       .  A
C295        C804   1.402       .  S
N296        C297   1.347       .  A
C297        N298   1.357       .  A
C297        C795   1.398       .  S
N298        C299   1.356       .  A
C299        N300   1.353       .  A
C299        C786   1.463       .  S
O301       Zr337   2.454       .  S
O301        C312   1.294       .  A
O302       Zr336   2.426       .  S
O302        C313   1.290       .  A
O303       Zr309   2.446       .  S
O303        C314   1.295       .  A
O304       Zr309   2.470       .  S
O304        C315   1.297       .  A
O305       Zr339   2.532       .  S
O305        C315   1.309       .  A
O306       Zr338   2.398       .  S
O306        C314   1.284       .  A
O307       Zr309   2.413       .  S
O307        C313   1.287       .  A
O308       Zr309   2.550       .  S
O308        C312   1.313       .  A
Zr309       O310   2.357       .  S
Zr309       O311   2.309       .  S
Zr309       O319   2.332       .  S
Zr309       O317   2.402       .  S
O310       Zr336   2.390       .  S
O310       Zr339   2.325       .  S
O311       Zr337   2.327       .  S
O311       Zr338   2.373       .  S
C313        C783   1.407       .  S
C314        C957   1.405       .  S
H316        O317   0.962       .  S
O317       Zr336   2.307       .  S
O317       Zr338   2.360       .  S
H318        O319   0.966       .  S
O319       Zr337   2.326       .  S
O319       Zr339   2.321       .  S
O320       Zr336   2.449       .  S
O320        C343   1.293       .  A
O321       Zr337   2.399       .  S
O321        C344   1.285       .  A
O322       Zr338   2.461       .  S
O322        C345   1.295       .  A
O323       Zr339   2.424       .  S
O323        C346   1.289       .  A
O324       Zr339   2.469       .  S
O324        C347   1.297       .  A
O325       Zr338   2.426       .  S
O325        C348   1.290       .  A
O326       Zr340   2.465       .  S
O326        C349   1.296       .  A
O327       Zr340   2.428       .  S
O327        C350   1.291       .  A
O328       Zr338   2.544       .  S
O328        C349   1.312       .  A
O329       Zr339   2.401       .  S
O329        C350   1.284       .  A
O330       Zr336   2.550       .  S
O330        C345   1.312       .  A
O331       Zr337   2.417       .  S
O331        C348   1.286       .  A
O332       Zr337   2.521       .  S
O332        C347   1.305       .  A
O333       Zr336   2.425       .  S
O333        C346   1.289       .  A
O334       Zr340   2.565       .  S
O334        C343   1.316       .  A
O335       Zr340   2.438       .  S
O335        C344   1.292       .  A
Zr336       O342   2.335       .  S
Zr336       O354   2.351       .  S
Zr337       O341   2.317       .  S
Zr337       O352   2.410       .  S
Zr338       O342   2.321       .  S
Zr338       O352   2.326       .  S
Zr339       O341   2.347       .  S
Zr339       O354   2.396       .  S
Zr340       O341   2.391       .  S
Zr340       O342   2.330       .  S
Zr340       O354   2.314       .  S
Zr340       O352   2.365       .  S
C344        C862   1.402       .  S
C345        C449   1.534       .  S
C346        C909   1.407       .  S
C348        C796   1.408       .  S
C350        C797   1.402       .  S
H351        O352   0.964       .  S
H353        O354   0.962       .  S
C355        N356   1.381       .  A
C355        N360   1.380       .  A
C355        C584   1.534       .  S
N356        C357   1.380       .  A
C357        N358   1.379       .  A
C357        C421   1.532       .  S
N358        C359   1.370       .  A
C359        N360   1.372       .  A
C359        C782   1.510       .  S
C361        N362   1.341       .  A
C361        N366   1.349       .  A
C361        C777   1.400       .  S
N362        C363   1.344       .  A
C363        N364   1.352       .  A
C363        C780   1.389       .  S
N364        C365   1.351       .  A
C365        N366   1.355       .  A
C365        C829   1.455       .  S
C367        N368   1.381       .  A
C367        N372   1.375       .  A
C367        C427   1.529       .  S
N368        C369   1.373       .  A
C369        N370   1.370       .  A
C369        C775   1.508       .  S
N370        C371   1.377       .  A
C371        N372   1.377       .  A
C373        N374   1.357       .  A
C373        N378   1.349       .  A
C373        C764   1.458       .  S
N374        C375   1.360       .  A
C375        N376   1.348       .  A
C375        C773   1.396       .  S
N376        C377   1.340       .  A
C377        N378   1.338       .  A
C377        C821   1.396       .  S
O379       Zr415   2.445       .  S
O379        C390   1.293       .  A
O380       Zr414   2.401       .  S
O380        C391   1.286       .  A
O381       Zr387   2.424       .  S
O381        C392   1.290       .  A
O382       Zr387   2.482       .  S
O382        C393   1.299       .  A
O383       Zr417   2.553       .  S
O383        C393   1.313       .  A
O384       Zr416   2.427       .  S
O384        C392   1.290       .  A
O385       Zr387   2.412       .  S
O385        C391   1.286       .  A
O386       Zr387   2.542       .  S
O386        C390   1.311       .  A
Zr387       O388   2.339       .  S
Zr387       O389   2.296       .  S
Zr387       O397   2.332       .  S
Zr387       O395   2.420       .  S
O388       Zr414   2.389       .  S
O388       Zr417   2.320       .  S
O389       Zr415   2.322       .  S
O389       Zr416   2.371       .  S
C391        C761   1.396       .  S
C392        C926   1.409       .  S
H394        O395   0.965       .  S
O395       Zr414   2.329       .  S
O395       Zr416   2.363       .  S
H396        O397   0.966       .  S
O397       Zr415   2.325       .  S
O397       Zr417   2.314       .  S
O398       Zr414   2.455       .  S
O398        C421   1.294       .  A
O399       Zr415   2.396       .  S
O399        C422   1.284       .  A
O400       Zr416   2.449       .  S
O400        C423   1.292       .  A
O401       Zr417   2.409       .  S
O401        C424   1.287       .  A
O402       Zr417   2.466       .  S
O402        C425   1.296       .  A
O403       Zr416   2.415       .  S
O403        C426   1.289       .  A
O404       Zr418   2.442       .  S
O404        C427   1.292       .  A
O405       Zr418   2.423       .  S
O405        C428   1.290       .  A
O406       Zr416   2.564       .  S
O406        C427   1.316       .  A
O407       Zr417   2.403       .  S
O407        C428   1.284       .  A
O408       Zr414   2.545       .  S
O408        C423   1.311       .  A
O409       Zr415   2.420       .  S
O409        C426   1.286       .  A
O410       Zr415   2.534       .  S
O410        C425   1.308       .  A
O411       Zr414   2.417       .  S
O411        C424   1.288       .  A
O412       Zr418   2.555       .  S
O412        C421   1.313       .  A
O413       Zr418   2.444       .  S
O413        C422   1.293       .  A
Zr414       O420   2.320       .  S
Zr414       O432   2.352       .  S
Zr415       O419   2.321       .  S
Zr415       O430   2.404       .  S
Zr416       O420   2.321       .  S
Zr416       O430   2.313       .  S
Zr417       O419   2.361       .  S
Zr417       O432   2.399       .  S
Zr418       O419   2.395       .  S
Zr418       O420   2.339       .  S
Zr418       O432   2.307       .  S
Zr418       O430   2.357       .  S
C422        C893   1.403       .  S
C423        C437   1.528       .  S
C424        C846   1.399       .  S
C426        C774   1.405       .  S
C428        C778   1.401       .  S
H429        O430   0.962       .  S
H431        O432   0.963       .  S
C433        N434   1.379       .  A
C433        N438   1.377       .  A
C433        C511   1.526       .  S
N434        C435   1.371       .  A
C435        N436   1.371       .  A
C435        C800   1.507       .  S
N436        C437   1.379       .  A
C437        N438   1.377       .  A
C439        N440   1.344       .  A
C439        N444   1.351       .  A
C439        C759   1.392       .  S
N440        C441   1.342       .  A
C441        N442   1.348       .  A
C441        C762   1.392       .  S
N442        C443   1.352       .  A
C443        N444   1.352       .  A
C443        C750   1.458       .  S
C445        N446   1.378       .  A
C445        N450   1.380       .  A
C445        C514   1.532       .  S
N446        C447   1.371       .  A
C447        N448   1.373       .  A
C447        C747   1.510       .  S
N448        C449   1.380       .  A
C449        N450   1.379       .  A
C451        N452   1.354       .  A
C451        N456   1.350       .  A
C451        C767   1.457       .  S
N452        C453   1.347       .  A
C453        N454   1.344       .  A
C453        C784   1.406       .  S
N454        C455   1.348       .  A
C455        N456   1.352       .  A
C455        C746   1.392       .  S
C457        N458   1.378       .  A
C457        N462   1.379       .  A
C457        C661   1.529       .  S
N458        C459   1.377       .  A
C459        N460   1.380       .  A
C459        C518   1.529       .  S
N460        C461   1.373       .  A
C461        N462   1.371       .  A
C461        C781   1.510       .  S
C463        N464   1.353       .  A
C463        N468   1.354       .  A
C463        C789   1.461       .  S
N464        C465   1.344       .  A
C465        N466   1.341       .  A
C465        C742   1.400       .  S
N466        C467   1.346       .  A
C467        N468   1.356       .  A
C467        C743   1.393       .  S
O469       Zr505   2.443       .  S
O469        C480   1.292       .  A
O470       Zr504   2.413       .  S
O470        C481   1.288       .  A
O471       Zr477   2.445       .  S
O471        C482   1.293       .  A
O472       Zr477   2.437       .  S
O472        C483   1.293       .  A
O473       Zr507   2.405       .  S
O473        C483   1.285       .  A
O474       Zr506   2.576       .  S
O474        C482   1.318       .  A
O475       Zr477   2.437       .  S
O475        C481   1.292       .  A
O476       Zr477   2.565       .  S
O476        C480   1.315       .  A
Zr477       O478   2.399       .  S
Zr477       O479   2.337       .  S
Zr477       O487   2.298       .  S
Zr477       O485   2.363       .  S
O478       Zr504   2.331       .  S
O478       Zr507   2.362       .  S
O479       Zr505   2.324       .  S
O479       Zr506   2.332       .  S
C481        C745   1.406       .  S
C483        C895   1.410       .  S
H484        O485   0.962       .  S
O485       Zr504   2.401       .  S
O485       Zr506   2.313       .  S
H486        O487   0.962       .  S
O487       Zr505   2.356       .  S
O487       Zr507   2.400       .  S
O488       Zr504   2.460       .  S
O488        C511   1.296       .  A
O489       Zr505   2.426       .  S
O489        C512   1.290       .  A
O490       Zr506   2.441       .  S
O490        C513   1.293       .  A
O491       Zr507   2.474       .  S
O491        C514   1.297       .  A
O492       Zr507   2.428       .  S
O492        C515   1.291       .  A
O493       Zr506   2.443       .  S
O493        C516   1.292       .  A
O494       Zr508   2.416       .  S
O494        C517   1.289       .  A
O495       Zr508   2.450       .  S
O495        C518   1.293       .  A
O496       Zr506   2.434       .  S
O496        C517   1.291       .  A
O497       Zr507   2.553       .  S
O497        C518   1.314       .  A
O498       Zr504   2.409       .  S
O498        C513   1.285       .  A
O499       Zr505   2.572       .  S
O499        C516   1.317       .  A
O500       Zr505   2.415       .  S
O500        C515   1.287       .  A
O501       Zr504   2.535       .  S
O501        C514   1.309       .  A
O502       Zr508   2.539       .  S
O502        C511   1.310       .  A
O503       Zr508   2.421       .  S
O503        C512   1.287       .  A
Zr504       O510   2.339       .  S
Zr504       O522   2.319       .  S
Zr505       O509   2.384       .  S
Zr505       O520   2.301       .  S
Zr506       O510   2.377       .  S
Zr506       O520   2.368       .  S
Zr507       O509   2.316       .  S
Zr507       O522   2.320       .  S
Zr508       O509   2.336       .  S
Zr508       O510   2.306       .  S
Zr508       O522   2.332       .  S
Zr508       O520   2.407       .  S
C512        C863   1.410       .  S
C513        C888   1.410       .  S
C515        C744   1.404       .  S
C517        C760   1.403       .  S
H519        O520   0.963       .  S
H521        O522   0.966       .  S
C523        N524   1.373       .  A
C523        N528   1.380       .  A
C523        C711   1.521       .  S
N524        C525   1.375       .  A
C525        N526   1.379       .  A
C525        C580   1.520       .  S
N526        C527   1.369       .  A
C527        N528   1.370       .  A
C527        C776   1.508       .  S
C529        N530   1.351       .  A
C529        N534   1.350       .  A
C529        C728   1.452       .  S
N530        C531   1.354       .  A
C531        N532   1.350       .  A
C531        C737   1.398       .  S
N532        C533   1.346       .  A
C533        N534   1.344       .  A
C533        C739   1.402       .  S
O535       Zr571   2.438       .  S
O535        C546   1.291       .  A
O536       Zr570   2.415       .  S
O536        C547   1.288       .  A
O537       Zr543   2.425       .  S
O537        C548   1.287       .  A
O538       Zr543   2.414       .  S
O538        C549   1.288       .  A
O539       Zr573   2.434       .  S
O539        C549   1.289       .  A
O540       Zr572   2.554       .  S
O540        C548   1.313       .  A
O541       Zr543   2.434       .  S
O541        C547   1.291       .  A
O542       Zr543   2.579       .  S
O542        C546   1.319       .  A
Zr543       O544   2.362       .  S
Zr543       O545   2.322       .  S
Zr543       O553   2.317       .  S
Zr543       O551   2.371       .  S
O544       Zr570   2.287       .  S
O544       Zr573   2.318       .  S
O545       Zr571   2.329       .  S
O545       Zr572   2.317       .  S
C547        C740   1.405       .  S
C549        C940   1.408       .  S
H550        O551   0.965       .  S
O551       Zr570   2.418       .  S
O551       Zr572   2.330       .  S
H552        O553   0.963       .  S
O553       Zr571   2.362       .  S
O553       Zr573   2.409       .  S
O554       Zr570   2.435       .  S
O554        C577   1.291       .  A
O555       Zr571   2.407       .  S
O555        C578   1.287       .  A
O556       Zr572   2.406       .  S
O556        C579   1.286       .  A
O557       Zr573   2.434       .  S
O557        C580   1.292       .  A
O558       Zr573   2.405       .  S
O558        C581   1.286       .  A
O559       Zr572   2.445       .  S
O559        C582   1.292       .  A
O560       Zr574   2.411       .  S
O560        C583   1.287       .  A
O561       Zr574   2.458       .  S
O561        C584   1.295       .  A
O562       Zr572   2.425       .  S
O562        C583   1.289       .  A
O563       Zr573   2.552       .  S
O563        C584   1.312       .  A
O564       Zr570   2.441       .  S
O564        C579   1.291       .  A
O565       Zr571   2.549       .  S
O565        C582   1.312       .  A
O566       Zr571   2.435       .  S
O566        C581   1.292       .  A
O567       Zr570   2.557       .  S
O567        C580   1.314       .  A
O568       Zr574   2.561       .  S
O568        C577   1.315       .  A
O569       Zr574   2.420       .  S
O569        C578   1.287       .  A
Zr570       O576   2.321       .  S
Zr570       O588   2.338       .  S
Zr571       O575   2.387       .  S
Zr571       O586   2.324       .  S
Zr572       O576   2.372       .  S
Zr572       O586   2.363       .  S
Zr573       O575   2.314       .  S
Zr573       O588   2.325       .  S
Zr574       O575   2.348       .  S
Zr574       O576   2.304       .  S
Zr574       O588   2.319       .  S
Zr574       O586   2.410       .  S
C577        C603   1.525       .  S
C578        C843   1.400       .  S
C579        C923   1.411       .  S
C581        C779   1.402       .  S
C583        C725   1.400       .  S
H585        O586   0.965       .  S
H587        O588   0.966       .  S
C589        N590   1.377       .  A
C589        N594   1.379       .  A
N590        C591   1.378       .  A
C591        N592   1.380       .  A
C591        C657   1.527       .  S
N592        C593   1.372       .  A
C593        N594   1.371       .  A
C593        C748   1.510       .  S
C595        N596   1.354       .  A
C595        N600   1.352       .  A
C595        C731   1.453       .  S
N596        C597   1.355       .  A
C597        N598   1.346       .  A
C597        C802   1.392       .  S
N598        C599   1.340       .  A
C599        N600   1.344       .  A
C599        C723   1.396       .  S
C601        N602   1.377       .  A
C601        N606   1.383       .  A
C601        C655   1.531       .  S
N602        C603   1.376       .  A
C603        N604   1.379       .  A
N604        C605   1.370       .  A
C605        N606   1.375       .  A
C605        C819   1.515       .  S
C607        N608   1.356       .  A
C607        N612   1.350       .  A
C607        C753   1.460       .  S
N608        C609   1.356       .  A
C609        N610   1.347       .  A
C609        C721   1.398       .  S
N610        C611   1.341       .  A
C611        N612   1.343       .  A
C611        C726   1.397       .  S
O613       Zr649   2.473       .  S
O613        C624   1.298       .  A
O614       Zr648   2.409       .  S
O614        C625   1.287       .  A
O615       Zr621   2.396       .  S
O615        C626   1.284       .  A
O616       Zr621   2.476       .  S
O616        C627   1.298       .  A
O617       Zr651   2.524       .  S
O617        C627   1.306       .  A
O618       Zr650   2.431       .  S
O618        C626   1.290       .  A
O619       Zr621   2.404       .  S
O619        C625   1.284       .  A
O620       Zr621   2.520       .  S
O620        C624   1.306       .  A
Zr621       O622   2.338       .  S
Zr621       O623   2.326       .  S
Zr621       O631   2.316       .  S
Zr621       O629   2.404       .  S
O622       Zr648   2.386       .  S
O622       Zr651   2.319       .  S
O623       Zr649   2.336       .  S
O623       Zr650   2.386       .  S
C625        C724   1.398       .  S
C626        C941   1.402       .  S
H628        O629   0.965       .  S
O629       Zr648   2.336       .  S
O629       Zr650   2.355       .  S
H630        O631   0.966       .  S
O631       Zr649   2.334       .  S
O631       Zr651   2.322       .  S
O632       Zr648   2.458       .  S
O632        C655   1.294       .  A
O633       Zr649   2.422       .  S
O633        C656   1.290       .  A
O634       Zr650   2.463       .  S
O634        C657   1.295       .  A
O635       Zr651   2.404       .  S
O635        C658   1.286       .  A
O636       Zr651   2.464       .  S
O636        C659   1.297       .  A
O637       Zr650   2.408       .  S
O637        C660   1.286       .  A
O638       Zr652   2.472       .  S
O638        C661   1.297       .  A
O639       Zr652   2.432       .  S
O639        C662   1.291       .  A
O640       Zr650   2.534       .  S
O640        C661   1.309       .  A
O641       Zr651   2.405       .  S
O641        C662   1.284       .  A
O642       Zr648   2.533       .  S
O642        C657   1.309       .  A
O643       Zr649   2.418       .  S
O643        C660   1.287       .  A
O644       Zr649   2.531       .  S
O644        C659   1.308       .  A
O645       Zr648   2.425       .  S
O645        C658   1.289       .  A
O646       Zr652   2.547       .  S
O646        C655   1.313       .  A
O647       Zr652   2.411       .  S
O647        C656   1.287       .  A
Zr648       O654   2.325       .  S
Zr648       O666   2.363       .  S
Zr649       O653   2.306       .  S
Zr649       O664   2.410       .  S
Zr650       O654   2.325       .  S
Zr650       O664   2.328       .  S
Zr651       O653   2.326       .  S
Zr651       O666   2.408       .  S
Zr652       O653   2.368       .  S
Zr652       O654   2.323       .  S
Zr652       O666   2.333       .  S
Zr652       O664   2.366       .  S
C656        C878   1.399       .  S
C658        C886   1.400       .  S
C660        C741   1.403       .  S
C662        C722   1.407       .  S
H663        O664   0.965       .  S
H665        O666   0.965       .  S
O667       Zr703   2.416       .  S
O667        C678   1.288       .  A
O668       Zr702   2.411       .  S
O668        C679   1.287       .  A
O669       Zr675   2.406       .  S
O669        C680   1.287       .  A
O670       Zr675   2.429       .  S
O670        C681   1.290       .  A
O671       Zr705   2.579       .  S
O671        C681   1.318       .  A
O672       Zr704   2.452       .  S
O672        C680   1.294       .  A
O673       Zr675   2.440       .  S
O673        C679   1.290       .  A
O674       Zr675   2.562       .  S
O674        C678   1.315       .  A
Zr675       O676   2.331       .  S
Zr675       O677   2.304       .  S
Zr675       O685   2.325       .  S
Zr675       O683   2.414       .  S
O676       Zr702   2.375       .  S
O676       Zr705   2.305       .  S
O677       Zr703   2.333       .  S
O677       Zr704   2.380       .  S
C679        C738   1.410       .  S
C680        C890   1.409       .  S
H682        O683   0.964       .  S
O683       Zr702   2.331       .  S
O683       Zr704   2.372       .  S
H684        O685   0.966       .  S
O685       Zr703   2.329       .  S
O685       Zr705   2.322       .  S
O686       Zr702   2.437       .  S
O686        C709   1.290       .  A
O687       Zr703   2.413       .  S
O687        C710   1.288       .  A
O688       Zr704   2.419       .  S
O688        C711   1.287       .  A
O689       Zr705   2.408       .  S
O689        C712   1.287       .  A
O690       Zr705   2.424       .  S
O690        C713   1.289       .  A
O691       Zr704   2.418       .  S
O691        C714   1.289       .  A
O692       Zr706   2.407       .  S
O692        C715   1.284       .  A
O693       Zr706   2.414       .  S
O693        C716   1.288       .  A
O694       Zr704   2.603       .  S
O694        C715   1.325       .  A
O695       Zr705   2.445       .  S
O695        C716   1.291       .  A
O696       Zr702   2.560       .  S
O696        C711   1.315       .  A
O697       Zr703   2.447       .  S
O697        C714   1.291       .  A
O698       Zr703   2.586       .  S
O698        C713   1.320       .  A
O699       Zr702   2.434       .  S
O699        C712   1.292       .  A
O700       Zr706   2.587       .  S
O700        C709   1.320       .  A
O701       Zr706   2.438       .  S
O701        C710   1.292       .  A
Zr702       O708   2.319       .  S
Zr702       O720   2.364       .  S
Zr703       O707   2.296       .  S
Zr703       O718   2.410       .  S
Zr704       O708   2.323       .  S
Zr704       O718   2.309       .  S
Zr705       O707   2.334       .  S
Zr705       O720   2.409       .  S
Zr706       O707   2.374       .  S
Zr706       O708   2.324       .  S
Zr706       O720   2.303       .  S
Zr706       O718   2.369       .  S
C710        C841   1.403       .  S
C712        C882   1.401       .  S
C714        C837   1.413       .  S
C716        C817   1.409       .  S
H717        O718   0.962       .  S
H719        O720   0.962       .  S
C721        C722   1.187       .  T
C723        C724   1.183       .  T
C725        C726   1.184       .  T
C727        C728   1.400       .  A
C727        C732   1.379   1_554  A
C727        H733   1.083       .  S
C728        C729   1.401       .  A
C729        C730   1.393   1_554  A
C729        H734   1.083   1_545  S
C730        C731   1.402       .  A
C730        H735   1.083   1_545  S
C731        C732   1.400       .  A
C732        H736   1.084       .  S
C737        C738   1.187       .  T
C739        C740   1.187       .  T
C741        C742   1.186       .  T
C743        C744   1.186       .  T
C745        C746   1.186       .  T
C747        C748   1.250       .  T
C749        C750   1.404       .  A
C749        C754   1.391       .  A
C749        H755   1.083       .  S
C750        C751   1.399       .  A
C751        C752   1.382   1_565  A
C751        H756   1.083       .  S
C752        C753   1.404       .  A
C752        H757   1.083       .  S
C753        C754   1.401   1_545  A
C754        H758   1.083   1_565  S
C759        C760   1.185       .  T
C761        C762   1.181       .  T
C763        C764   1.402       .  A
C763        C768   1.376   1_554  A
C763        H769   1.083       .  S
C764        C765   1.401       .  A
C765        C766   1.398   1_554  A
C765        H770   1.083       .  S
C766        C767   1.406       .  A
C766        H771   1.083       .  S
C767        C768   1.397       .  A
C768        H772   1.083       .  S
C773        C774   1.185       .  T
C775        C776   1.249       .  T
C777        C778   1.186       .  T
C779        C780   1.183       .  T
C781        C782   1.250       .  T
C783        C784   1.189       .  T
C785        C786   1.404       .  A
C785        C790   1.398   1_455  A
C785        H791   1.083   1_556  S
C786        C787   1.401       .  A
C787        C788   1.376   1_455  A
C787        H792   1.083       .  S
C788        C789   1.400       .  A
C788        H793   1.083       .  S
C789        C790   1.405       .  A
C790        H794   1.083   1_556  S
C795        C796   1.188       .  T
C797        C798   1.185       .  T
C799        C800   1.248       .  T
C801        C802   1.184       .  T
C803        C804   1.187       .  T
C805        C806   1.405       .  A
C805        C810   1.393   1_565  A
C805        H811   1.083       .  S
C806        C807   1.398       .  A
C807        C808   1.379   1_565  A
C807        H812   1.083       .  S
C808        C809   1.403       .  A
C808        H813   1.083       .  S
C809        C810   1.401       .  A
C810        H814   1.083       .  S
C815        C816   1.185       .  T
C817        C818   1.186       .  T
C819        C820   1.253       .  T
C821        C822   1.184       .  T
C823        C824   1.180       .  T
C825        C826   1.403       .  A
C825        C830   1.382   1_455  A
C825        H831   1.084       .  S
C826        C827   1.399       .  A
C827        C828   1.392   1_455  A
C827        H832   1.083       .  S
C828        C829   1.404       .  A
C828        H833   1.083       .  S
C829        C830   1.398       .  A
C830        H834   1.084       .  S
C835        C836   1.184       .  T
C837        C838   1.188       .  T
C839        C840   1.255       .  T
C841        C842   1.183       .  T
C843        C844   1.184       .  T
C845        C846   1.184       .  T
C847        C848   1.188       .  T
C849        C850   1.256   1_545  T
C851        C852   1.405       .  A
C851        C856   1.397       .  A
C851        H857   1.083       .  S
C852        C853   1.396   1_655  A
C853        C854   1.378       .  A
C853        H858   1.083       .  S
C854        C855   1.402   1_455  A
C854        H859   1.083       .  S
C855        C856   1.402       .  A
C856        H860   1.083       .  S
C861        C862   1.186       .  T
C863        C864   1.189       .  T
C865        C866   1.398   1_655  A
C865        C870   1.382       .  A
C865        H871   1.084       .  S
C866        C867   1.403       .  A
C867        C868   1.392       .  A
C867        H872   1.083       .  S
C868        C869   1.400       .  A
C868        H873   1.083       .  S
C869        C870   1.403   1_455  A
C870        H874   1.083       .  S
C875        C876   1.187       .  T
C877        C878   1.184       .  T
C879        C880   1.247   1_545  T
C881        C882   1.182       .  T
C883        C884   1.186       .  T
C885        C886   1.184       .  T
C887        C888   1.189       .  T
C889        C890   1.189       .  T
C891        C892   1.191       .  T
C893        C894   1.184       .  T
C895        C896   1.191       .  T
C897        C898   1.404       .  A
C897        C902   1.395       .  A
C897        H903   1.083       .  S
C898        C899   1.399   1_565  A
C899        C900   1.379       .  A
C899        H904   1.083       .  S
C900        C901   1.403   1_545  A
C900        H905   1.083       .  S
C901        C902   1.402       .  A
C902        H906   1.083       .  S
C907        C908   1.187       .  T
C909        C910   1.188       .  T
C911        C912   1.249   1_556  T
C913        C914   1.400       .  A
C913        C918   1.376       .  A
C913        H919   1.084   1_545  S
C914        C915   1.401       .  A
C915        C916   1.396       .  A
C915        H920   1.083       .  S
C916        C917   1.404       .  A
C916        H921   1.083       .  S
C917        C918   1.396       .  A
C918        H922   1.084   1_545  S
C923        C924   1.188       .  T
C925        C926   1.190       .  T
C927        C928   1.249   1_554  T
C929        C930   1.396       .  A
C929        C934   1.379       .  A
C929        H935   1.083   1_554  S
C930        C931   1.406       .  A
C931        C932   1.396       .  A
C931        H936   1.083       .  S
C932        C933   1.401       .  A
C932        H937   1.083       .  S
C933        C934   1.404       .  A
C934        H938   1.084       .  S
C939        C940   1.184       .  T
C941        C942   1.186       .  T
C943        C944   1.251   1_455  T
C945        C946   1.403       .  A
C945        C950   1.395       .  A
C945        H951   1.083       .  S
C946        C947   1.401   1_556  A
C947        C948   1.382       .  A
C947        H952   1.083       .  S
C948        C949   1.403   1_554  A
C948        H953   1.083       .  S
C949        C950   1.404       .  A
C950        H954   1.083       .  S
C955        C956   1.186       .  T
C957        C958   1.188       .  T
C959        C960   1.249   1_655  T
