geometry optimzed in LAMMPS
_audit_creation_date              2020-11-30 
_audit_creation_method            'lammps2cif' 
_symmetry_space_group_name_H-M    'P1' 
_symmetry_Int_Tables_number       1 
_symmetry_cell_setting            triclinic 
loop_ 
_symmetry_equiv_pos_as_xyz 
  x,y,z 
_cell_length_a                    36.81532339 
_cell_length_b                    36.830152721354104 
_cell_length_c                    43.35948704264887 
_cell_angle_alpha                 89.8579439020454 
_cell_angle_beta                  90.03965542835692 
_cell_angle_gamma                 120.9404626904944 
loop_ 
_atom_site_label 
_atom_site_type_symbol 
_atom_site_fract_x 
_atom_site_fract_y 
_atom_site_fract_z 
_atom_site_charge 
O1          O  0.59268573  0.00880841  0.97323812    -0.77900
C2          C  0.59026555  0.08844763  0.04883779     0.83200
O3          O  0.47679502  0.91875858  0.04134721    -0.79000
O4          O  0.45121185  0.03706203  0.03806978    -0.80500
O5          O  0.50411283  0.06014748  0.93622363    -0.80300
O6          O  0.55812245  0.00949321  0.93139891    -0.78900
Zn7        Zn  0.55906749  0.00886802  0.00983198     1.55700
O8          O  0.50612489  0.09557771  0.97834732    -0.80300
Cd9        Cd  0.50623270  0.00819591  0.95153621     1.59700
Cd10       Cd  0.45761043  0.95274775  0.01374006     1.59600
O11         O  0.45143186  0.95594908  0.93592772    -0.80300
O12         O  0.50764719  0.00673015  0.99752385    -1.90800
Cd13       Cd  0.50678589  0.05731734  0.01393257     1.59900
O14         O  0.41850118  0.91657049  0.97731243    -0.80300
O15         O  0.55771793  0.09156848  0.04408920    -0.78900
C16         C  0.51408506  0.92711591  0.04814237     0.83600
C17         C  0.58922798  0.00916204  0.94400769     0.83300
O18         O  0.59482697  0.06014082  0.03571818    -0.77900
C19         C  0.50373676  0.09103332  0.94906798     0.84100
O20         O  0.54664303  0.95946925  0.03694259    -0.78000
C21         C  0.42028896  0.92332140  0.94825622     0.84200
C22         C  0.42145836  0.00104450  0.04731363     0.84600
O23         O  0.42048345  0.96673320  0.04121531    -0.80400
O24         O  0.58768300  0.58629362  0.02611628    -0.77900
C25         C  0.58943753  0.50516170  0.95294144     0.83200
O26         O  0.47502620  0.55887473  0.95689806    -0.79000
O27         O  0.45028679  0.41578353  0.95681056    -0.80500
O28         O  0.49808156  0.44598635  0.06270347    -0.80300
O29         O  0.55111843  0.55214490  0.06782457    -0.78900
Zn30       Zn  0.55556566  0.55187687  0.98965928     1.55700
O31         O  0.49901984  0.41129357  0.02084512    -0.80300
Cd32       Cd  0.50012736  0.49978933  0.04721517     1.59700
Cd33       Cd  0.45380533  0.50485681  0.98461766     1.59600
O34         O  0.44515462  0.49631447  0.06214794    -0.80300
O35         O  0.50323539  0.50186074  0.00122142    -1.90800
Cd36       Cd  0.50309122  0.45078144  0.98445334     1.59900
O37         O  0.41322482  0.50129484  0.01997684    -0.80300
O38         O  0.55667709  0.46863048  0.95723387    -0.78900
C39         C  0.51284343  0.58872919  0.95112246     0.83600
C40         C  0.58307509  0.58367243  0.05525090     0.83300
O41         O  0.59296177  0.53813526  0.96524486    -0.77900
C42         C  0.49697260  0.41419622  0.05010837     0.84100
O43         O  0.54469061  0.58894727  0.96265664    -0.78000
C44         C  0.41442513  0.49696100  0.04913781     0.84200
C45         C  0.41920586  0.42024556  0.94964506     0.84600
O46         O  0.41678262  0.45200864  0.95817933    -0.80400
O47         O  0.41035072  0.99299412  0.47655170    -0.77900
C48         C  0.40846225  0.90960041  0.54912631     0.83200
O49         O  0.52531060  0.08236694  0.54507718    -0.79000
O50         O  0.54615226  0.96160127  0.54608781    -0.80500
O51         O  0.50205328  0.94578324  0.43874895    -0.80300
O52         O  0.44550734  0.99452523  0.43455257    -0.78900
Zn53       Zn  0.44363467  0.99271297  0.51306625     1.55700
O54         O  0.50228836  0.91010520  0.48037650    -0.80300
Cd55       Cd  0.49753573  0.99599035  0.45484197     1.59700
Cd56       Cd  0.54497643  0.04822538  0.51785346     1.59600
O57         O  0.55170911  0.04977984  0.43978105    -0.80300
O58         O  0.49507485  0.99487716  0.50100608    -1.90800
Cd59       Cd  0.49463579  0.94304030  0.51710538     1.59900
O60         O  0.58535040  0.08545672  0.48222180    -0.80300
O61         O  0.43959073  0.90447696  0.54326494    -0.78900
C62         C  0.48787285  0.07454379  0.55076299     0.83600
C63         C  0.41401606  0.99388561  0.44732348     0.83300
O64         O  0.40712809  0.94106118  0.53835354    -0.77900
C65         C  0.50488999  0.91589781  0.45114042     0.84100
O66         O  0.45557415  0.04221575  0.53942136    -0.78000
C67         C  0.58326418  0.08095178  0.45295374     0.84200
C68         C  0.57753989  0.99759990  0.55362636     0.84600
O69         O  0.58116075  0.03234612  0.54473941    -0.80400
O70         O  0.00095415  0.41437792  0.02713008    -0.77900
C71         C  0.91906939  0.41300297  0.95411713     0.83200
O72         O  0.09027110  0.53005649  0.95688010    -0.79000
O73         O  0.96933749  0.55027282  0.96054980    -0.80500
O74         O  0.95545029  0.50900609  0.06533477    -0.80300
O75         O  0.00246641  0.45032029  0.06866728    -0.78900
Zn76       Zn  0.00181842  0.44802402  0.99045479     1.55700
O77         O  0.91717779  0.50424448  0.02403933    -0.80300
Cd78       Cd  0.00478055  0.50260467  0.04857445     1.59700
Cd79       Cd  0.05672331  0.54918170  0.98484744     1.59600
O80         O  0.06009814  0.55527305  0.06267456    -0.80300
O81         O  0.00366793  0.49927233  0.00259750    -1.90800
Cd82       Cd  0.95111100  0.49777312  0.98767251     1.59900
O83         O  0.09595741  0.58858352  0.02016285    -0.80300
O84         O  0.91363035  0.44378332  0.96046127    -0.78900
C85         C  0.08330680  0.49284394  0.95201052     0.83600
C86         C  0.00129924  0.41838472  0.05629582     0.83300
O87         O  0.95050497  0.41151620  0.96477436    -0.77900
C88         C  0.92420782  0.50952830  0.05303699     0.84100
O89         O  0.05180550  0.46051711  0.96420688    -0.78000
C90         C  0.09210044  0.58607808  0.04950437     0.84200
C91         C  0.00456411  0.58086426  0.95088603     0.84600
O92         O  0.04002570  0.58447865  0.95753624    -0.80400
O93         O  0.95406572  0.41412924  0.53577592    -0.77900
C94         C  0.00554775  0.41999226  0.44575634     0.83200
O95         O  0.09518856  0.53266612  0.54197806    -0.79000
O96         O  0.06070189  0.55644725  0.43726429    -0.80500
O97         O  0.92109373  0.50595058  0.47672045    -0.80300
O98         O  0.91675151  0.44597199  0.53941576    -0.78900
Zn99       Zn  0.00561634  0.45039136  0.51083812     1.55700
O100        O  0.95717752  0.50693121  0.43526894    -0.80300
Cd101      Cd  0.95505410  0.50035995  0.51321762     1.59700
Cd102      Cd  0.05995129  0.55167270  0.51561953     1.59600
O103        O  0.97308287  0.55223031  0.54091973    -0.80300
O104        O  0.00720515  0.50135068  0.49839035    -1.90800
Cd105      Cd  0.00749893  0.50310868  0.45242059     1.59900
O106        O  0.04361381  0.58559320  0.54485616    -0.80300
O107        O  0.00678248  0.45171811  0.43294602    -0.78900
C108        C  0.08779165  0.49544185  0.54779799     0.83600
C109        C  0.92215485  0.41519598  0.54575906     0.83300
O110        O  0.00476151  0.41616239  0.47493503    -0.77900
C111        C  0.92670628  0.50874730  0.44754810     0.84100
O112        O  0.05551501  0.46273078  0.53688752    -0.78000
C113        C  0.00815597  0.58201299  0.55143064     0.84200
C114        C  0.09134314  0.58872334  0.45007542     0.84600
O115        O  0.09575963  0.59211131  0.47938675    -0.80400
N116        N  0.99943680  0.28740795  0.37353958    -0.02900
C117        C  0.03191563  0.28502152  0.36134625    -0.00300
C118        C  0.01617153  0.24712133  0.34566602    -0.23200
C119        C  0.97256543  0.22597330  0.34833972    -0.23400
C120        C  0.96321760  0.25177031  0.36541134    -0.00400
H121        H  0.03418894  0.23713887  0.33214798     0.13400
H122        H  0.95017549  0.19679810  0.33690893     0.13400
C123        C  0.54424233  0.81947026  0.36524239     0.80800
N124        N  0.57152683  0.80612419  0.37311811    -0.77500
C125        C  0.58176061  0.78512895  0.35223491     0.83300
N126        N  0.56338375  0.77650175  0.32396791    -0.77400
C127        C  0.53724468  0.79042315  0.31545505     0.83400
N128        N  0.52833390  0.81247520  0.33601687    -0.79100
C129        C  0.72092046  0.18637825  0.36934079     0.80800
N130        N  0.71240054  0.19393525  0.34023520    -0.77500
C131        C  0.74420923  0.21690420  0.31993229     0.83300
N132        N  0.78481121  0.23207096  0.32881452    -0.77400
C133        C  0.79396458  0.22277589  0.35700049     0.83400
N134        N  0.76183778  0.19996921  0.37729523    -0.79100
N135        N  0.71296629  0.71326012  0.37902161    -0.02900
C136        C  0.71737991  0.75008874  0.36875623    -0.00300
C137        C  0.75749922  0.77542149  0.35654250    -0.23200
C138        C  0.77839016  0.75342404  0.35977995    -0.23400
C139        C  0.75015676  0.71514006  0.37350915    -0.00400
H140        H  0.76959438  0.80573812  0.34525798     0.13400
H141        H  0.80962837  0.76306652  0.35107998     0.13400
C142        C  0.82680224  0.54890371  0.36565310     0.80800
N143        N  0.81102229  0.57294655  0.37630024    -0.77500
C144        C  0.78752941  0.58264846  0.35753014     0.83300
N145        N  0.78033824  0.56850311  0.32805347    -0.77400
C146        C  0.79727439  0.54618789  0.31662738     0.83400
N147        N  0.82075073  0.53669490  0.33550038    -0.79100
C148        C  0.18556643  0.72529351  0.36391405     0.80800
N149        N  0.19668288  0.76574305  0.37106743    -0.77500
C150        C  0.21383708  0.79672459  0.34933628     0.83300
N151        N  0.22086959  0.78724239  0.32066896    -0.77400
C152        C  0.21004382  0.74729146  0.31308358     0.83400
N153        N  0.19164780  0.71612138  0.33457626    -0.79100
N154        N  0.28426372  0.99937255  0.37768871    -0.02900
C155        C  0.28219037  0.03460829  0.37309649    -0.00300
C156        C  0.24326901  0.02392093  0.36085422    -0.23200
C157        C  0.22092861  0.98051569  0.35754610    -0.23400
C158        C  0.24693000  0.96624429  0.36808346    -0.00400
H159        H  0.23339015  0.04546700  0.35307505     0.13400
H160        H  0.18989137  0.96165940  0.34727349     0.13400
C161        C  0.27494263  0.47050995  0.36554471     0.80800
N162        N  0.23375770  0.44068481  0.37198580    -0.77500
C163        C  0.20356382  0.42761441  0.34963643     0.83300
N164        N  0.21473952  0.44573874  0.32133515    -0.77400
C165        C  0.25540351  0.47465787  0.31430896     0.83400
N166        N  0.28560419  0.48639478  0.33630823    -0.79100
C167        C  0.45272934  0.28004981  0.36538984     0.80800
N168        N  0.42700863  0.23930734  0.37499785    -0.77500
C169        C  0.41761988  0.20650244  0.35581042     0.83300
N170        N  0.43415889  0.21474531  0.32700437    -0.77400
C171        C  0.45852038  0.25496076  0.31653647     0.83400
N172        N  0.46715848  0.28773346  0.33566217    -0.79100
C173        C  0.54638035  0.82732579  0.13581362     0.80800
N174        N  0.57345760  0.81409469  0.12767780    -0.77500
C175        C  0.58131114  0.79004730  0.14719944     0.83300
N176        N  0.56219212  0.77974903  0.17518318    -0.77400
C177        C  0.53684000  0.79440489  0.18442330     0.83400
N178        N  0.52870304  0.81809373  0.16455106    -0.79100
C179        C  0.71995026  0.18452678  0.13994347     0.80800
N180        N  0.71094398  0.19249941  0.16879946    -0.77500
C181        C  0.74280039  0.21502615  0.18930375     0.83300
N182        N  0.78333425  0.22851135  0.18105074    -0.77400
C183        C  0.79257016  0.21872551  0.15319607     0.83400
N184        N  0.76075258  0.19684143  0.13273102    -0.79100
N185        N  0.71459820  0.71995185  0.12483395    -0.02900
C186        C  0.71810765  0.75781869  0.13009233    -0.00300
C187        C  0.75932667  0.78733093  0.13828279    -0.23200
C188        C  0.78171205  0.76651894  0.13784762    -0.23400
C189        C  0.75340112  0.72522851  0.12917369    -0.00400
H190        H  0.77129555  0.81971605  0.14530414     0.13400
H191        H  0.81440066  0.77951627  0.14459101     0.13400
C192        C  0.82883311  0.55610604  0.13470011     0.80800
N193        N  0.81508442  0.58278199  0.12577679    -0.77500
C194        C  0.79423837  0.59394283  0.14618729     0.83300
N195        N  0.78714475  0.57788511  0.17515603    -0.77400
C196        C  0.80171315  0.55276311  0.18476826     0.83400
N197        N  0.82289782  0.54222811  0.16454895    -0.79100
C198        C  0.19555901  0.72287985  0.13304323     0.80800
N199        N  0.20235525  0.71500254  0.16257305    -0.77500
C200        C  0.22045521  0.74677823  0.18343416     0.83300
N201        N  0.23039859  0.78616413  0.17494401    -0.77400
C202        C  0.22175492  0.79442147  0.14633908     0.83400
N203        N  0.20518269  0.76281420  0.12500970    -0.79100
N204        N  0.28849577  0.99703596  0.11825281    -0.02900
C205        C  0.28735759  0.03214868  0.12574664    -0.00300
C206        C  0.24936009  0.02098698  0.13978202    -0.23200
C207        C  0.22665160  0.97744028  0.14142564    -0.23400
C208        C  0.25132837  0.96335215  0.12801299    -0.00400
H209        H  0.24055929  0.04218935  0.14995843     0.13400
H210        H  0.19647175  0.95822655  0.15285822     0.13400
C211        C  0.27914034  0.46315021  0.13469427     0.80800
N212        N  0.23777562  0.43370548  0.12811188    -0.77500
C213        C  0.20700406  0.42322168  0.14976701     0.83300
N214        N  0.21779754  0.44333837  0.17728086    -0.77400
C215        C  0.25849706  0.47147375  0.18457014     0.83400
N216        N  0.28920360  0.48084050  0.16339672    -0.79100
C217        C  0.45998509  0.27729182  0.13473238     0.80800
N218        N  0.47280212  0.28492778  0.16473082    -0.77500
C219        C  0.46150938  0.25238175  0.18476080     0.83300
N220        N  0.43707261  0.21197857  0.17459053    -0.77400
C221        C  0.42231380  0.20384511  0.14520682     0.83400
N222        N  0.43393862  0.23661808  0.12536173    -0.79100
N223        N  0.99892654  0.28940543  0.13188209    -0.02900
C224        C  0.03212473  0.28617017  0.14152398    -0.00300
C225        C  0.01736001  0.24717474  0.15549856    -0.23200
C226        C  0.97369838  0.22591917  0.15414000    -0.23400
C227        C  0.96330013  0.25277988  0.13962971    -0.00400
H228        H  0.03621529  0.23617052  0.16673529     0.13400
H229        H  0.95200283  0.19553028  0.16450044     0.13400
O230        O  0.57934655  0.53928895  0.54113676    -0.77900
C231        C  0.57584269  0.58505477  0.45010768     0.83200
O232        O  0.46105748  0.55724079  0.54636013    -0.79000
O233        O  0.43771007  0.50394385  0.44139905    -0.80500
O234        O  0.49204628  0.41489242  0.47760662    -0.80300
O235        O  0.54801959  0.46917926  0.54345089    -0.78900
Zn236      Zn  0.54371570  0.55338636  0.51483411     1.55700
O237        O  0.48600698  0.44935600  0.43756659    -0.80300
Cd238      Cd  0.49485657  0.45200028  0.51533125     1.59700
Cd239      Cd  0.44207575  0.50353800  0.51904796     1.59600
O240        O  0.44129828  0.41427567  0.54105941    -0.80300
O241        O  0.49277225  0.50314224  0.50162133    -1.90800
Cd242      Cd  0.49047953  0.50336622  0.45572771     1.59900
O243        O  0.40794071  0.45040441  0.54654325    -0.80300
O244        O  0.54313843  0.55545978  0.43684826    -0.78900
C245        C  0.49811724  0.58901761  0.55100860     0.83600
C246        C  0.57825022  0.50610755  0.55079021     0.83300
O247        O  0.57934385  0.58701103  0.47929258    -0.77900
C248        C  0.48719746  0.41791682  0.44867666     0.84100
O249        O  0.53086492  0.59103777  0.53951481    -0.78000
C250        C  0.41114226  0.41804629  0.55171746     0.84200
C251        C  0.40562908  0.50198072  0.45422335     0.84600
O252        O  0.40174653  0.50112339  0.48357173    -0.80400
C253        C  0.54053190  0.72539812  0.63635269     0.80800
N254        N  0.57006259  0.76584660  0.62805728    -0.77500
C255        C  0.58494596  0.79768314  0.64899955     0.83300
N256        N  0.56901182  0.78913770  0.67798873    -0.77400
C257        C  0.53999755  0.74916427  0.68679380     0.83400
N258        N  0.52630037  0.71715638  0.66605116    -0.79100
C259        C  0.71520489  0.53923903  0.63441577     0.80800
N260        N  0.75601232  0.56409698  0.62453253    -0.77500
C261        C  0.78891203  0.57240541  0.64335548     0.83300
N262        N  0.78079867  0.55681594  0.67245967    -0.77400
C263        C  0.74062758  0.53450740  0.68349052     0.83400
N264        N  0.70770160  0.52552902  0.66431591    -0.79100
N265        N  0.71541041  0.00222866  0.61865772    -0.02900
C266        C  0.72073740  0.96921617  0.62550870    -0.00300
C267        C  0.76172256  0.98443279  0.63583289    -0.23200
C268        C  0.78192436  0.02791148  0.63568991    -0.23400
C269        C  0.75254043  0.03788602  0.62561504    -0.00400
H270        H  0.77468536  0.96584183  0.64448638     0.13400
H271        H  0.81346796  0.04965958  0.64418054     0.13400
C272        C  0.82005610  0.27974076  0.63116548     0.80800
N273        N  0.80596200  0.23885163  0.62346747    -0.77500
C274        C  0.78511554  0.20718955  0.64424923     0.83300
N275        N  0.77794504  0.21665858  0.67297605    -0.77400
C276        C  0.79309255  0.25750404  0.68149165     0.83400
N277        N  0.81434704  0.28909369  0.66050507    -0.79100
C278        C  0.18247923  0.45407169  0.63324096     0.80800
N279        N  0.19400458  0.42535676  0.62569405    -0.77500
C280        C  0.21207595  0.41243145  0.64705347     0.83300
N281        N  0.22006648  0.42972349  0.67555309    -0.77400
C282        C  0.20798685  0.45737885  0.68386910     0.83400
N283        N  0.18865468  0.46917263  0.66272659    -0.79100
N284        N  0.27930878  0.27847842  0.61821439    -0.02900
C285        C  0.24246648  0.27432068  0.62824376    -0.00300
C286        C  0.21711057  0.23431413  0.64076147    -0.23200
C287        C  0.23923032  0.21350372  0.63832504    -0.23400
C288        C  0.27759278  0.24160481  0.62473159    -0.00400
H289        H  0.18683736  0.22240239  0.65205880     0.13400
H290        H  0.22982586  0.18268171  0.64780524     0.13400
C291        C  0.45035337  0.17427053  0.63423968     0.80800
N292        N  0.42568013  0.18953092  0.62408811    -0.77500
C293        C  0.41459029  0.21122069  0.64332263     0.83300
N294        N  0.42724990  0.21640663  0.67308593    -0.77400
C295        C  0.44912295  0.19882005  0.68436080     0.83400
N296        N  0.46169462  0.17853009  0.66466210    -0.79100
C297        C  0.27599000  0.81058965  0.63823670     0.80800
N298        N  0.23519982  0.79975078  0.63206454    -0.77500
C299        C  0.20482454  0.78178611  0.65420781     0.83300
N300        N  0.21529438  0.77360644  0.68216711    -0.77400
C301        C  0.25558140  0.78471070  0.68904546     0.83400
N302        N  0.28623043  0.80385591  0.66713816    -0.79100
N303        N  0.99880250  0.70483460  0.62596294    -0.02900
C304        C  0.96276718  0.70504908  0.63230932    -0.00300
C305        C  0.97238571  0.74132931  0.64829268    -0.23200
C306        C  0.01563531  0.76381885  0.65227483    -0.23400
C307        C  0.03126386  0.74084091  0.63832532    -0.00400
H308        H  0.95015692  0.74924426  0.65780767     0.13400
H309        H  0.03359722  0.79304273  0.66501797     0.13400
N310        N  0.00200982  0.71102245  0.88041033    -0.02900
C311        C  0.96709593  0.71233144  0.87229253    -0.00300
C312        C  0.97873039  0.75034033  0.85799218    -0.23200
C313        C  0.02228874  0.77278568  0.85670465    -0.23400
C314        C  0.03591911  0.74799989  0.87060954    -0.00400
H315        H  0.95784364  0.75931893  0.84741335     0.13400
H316        H  0.04183596  0.80285338  0.84519086     0.13400
C317        C  0.45401305  0.18390489  0.86854305     0.80800
N318        N  0.46085634  0.18400406  0.83753954    -0.77500
C319        C  0.44034770  0.19524577  0.81714750     0.83300
N320        N  0.41385311  0.20748966  0.82798390    -0.77400
C321        C  0.40621962  0.20758688  0.85853192     0.83400
N322        N  0.42653780  0.19583016  0.87892196    -0.79100
C323        C  0.27930413  0.81555615  0.86797629     0.80800
N324        N  0.23850205  0.80259411  0.87601331    -0.77500
C325        C  0.20652263  0.78078133  0.85545366     0.83300
N326        N  0.21550810  0.77030039  0.82776663    -0.77400
C327        C  0.25579672  0.78378109  0.81910867     0.83400
N328        N  0.28775548  0.80721933  0.83908711    -0.79100
C329        C  0.54939885  0.72452247  0.86554932     0.80800
N330        N  0.53185697  0.71637641  0.83684136    -0.77500
C331        C  0.53959515  0.74876444  0.81756843     0.83300
N332        N  0.56502622  0.78918756  0.82721806    -0.77400
C333        C  0.58426509  0.79785406  0.85508306     0.83400
N334        N  0.57685809  0.76535995  0.87407206    -0.79100
C335        C  0.72237982  0.53999993  0.86545885     0.80800
N336        N  0.71373176  0.52591410  0.83574956    -0.77500
C337        C  0.74590732  0.53595453  0.81553775     0.83300
N338        N  0.78661644  0.56041687  0.82519440    -0.77400
C339        C  0.79555876  0.57624120  0.85420096     0.83400
N340        N  0.76335354  0.56620133  0.87410055    -0.79100
N341        N  0.71860079  0.00574867  0.87259019    -0.02900
C342        C  0.72028708  0.97066118  0.86615867    -0.00300
C343        C  0.75829371  0.98186023  0.85198804    -0.23200
C344        C  0.78038148  0.02536229  0.84929723    -0.23400
C345        C  0.75528010  0.03919227  0.86223065    -0.00400
H346        H  0.76768254  0.96064553  0.84271464     0.13400
H347        H  0.81054587  0.04463168  0.83786597     0.13400
C348        C  0.82228127  0.28258339  0.86348763     0.80800
N349        N  0.81752500  0.29322584  0.83409682    -0.77500
C350        C  0.79873696  0.26255167  0.81218402     0.83300
N351        N  0.78602354  0.22207618  0.81958834    -0.77400
C352        C  0.79226348  0.21115469  0.84798798     0.83400
N353        N  0.81003768  0.24150987  0.87005247    -0.79100
C354        C  0.17774190  0.45355498  0.86488743     0.80800
N355        N  0.18527104  0.46851801  0.83529824    -0.77500
C356        C  0.20476955  0.45573037  0.81502011     0.83300
N357        N  0.21589397  0.42752248  0.82439236    -0.77400
C358        C  0.20736434  0.41136576  0.85335429     0.83400
N359        N  0.18820978  0.42446089  0.87338772    -0.79100
N360        N  0.27826556  0.28177126  0.88910934    -0.02900
C361        C  0.23981561  0.27758936  0.88452010    -0.00300
C362        C  0.20962060  0.23576562  0.87912361    -0.23200
C363        C  0.23043657  0.21360317  0.87996436    -0.23400
C364        C  0.27272641  0.24253803  0.88600000    -0.00400
H365        H  0.17681651  0.22324506  0.87292111     0.13400
H366        H  0.21670843  0.18036976  0.87465667     0.13400
C367        C  0.25846156  0.34426629  0.85688680    -0.20700
C368        C  0.23292297  0.31326857  0.87860753    -0.08700
C369        C  0.19918748  0.31486170  0.89229587     0.30100
C370        C  0.19173541  0.34749510  0.88465199    -0.20700
C371        C  0.21682580  0.37816401  0.86241254    -0.08800
C372        C  0.25020774  0.37600699  0.84845034     0.30100
F373        F  0.27499817  0.40455557  0.82664490    -0.19300
H374        H  0.28406505  0.34303880  0.84563565     0.18500
H375        H  0.16555975  0.34807651  0.89550428     0.18500
F376        F  0.17347577  0.28489257  0.91300096    -0.19300
C377        C  0.77004894  0.10776159  0.88583825    -0.20700
C378        C  0.76430187  0.08301240  0.85964918    -0.08700
C379        C  0.76774890  0.10035728  0.83028818     0.30100
C380        C  0.77665908  0.14172463  0.82706412    -0.20700
C381        C  0.78286801  0.16718898  0.85303737    -0.08800
C382        C  0.77970464  0.14981255  0.88264255     0.30100
F383        F  0.78542882  0.17305495  0.90837541    -0.19300
H384        H  0.76751338  0.09464798  0.90866463     0.18500
H385        H  0.77899357  0.15383680  0.80391408     0.18500
F386        F  0.76177733  0.07692291  0.80458693    -0.19300
C387        C  0.65475249  0.85157936  0.87687079    -0.20700
C388        C  0.61668978  0.84211792  0.86243793    -0.08700
C389        C  0.61180313  0.87555897  0.85195376     0.30100
C390        C  0.64498644  0.91742927  0.85471137    -0.20700
C391        C  0.68377233  0.92676461  0.86762848    -0.08800
C392        C  0.68830444  0.89358799  0.87910818     0.30100
F393        F  0.72545421  0.90179063  0.89184921    -0.19300
H394        H  0.65932290  0.82634767  0.88493511     0.18500
H395        H  0.64102418  0.94246723  0.84534711     0.18500
F396        F  0.57526052  0.86770166  0.83830135    -0.19300
C397        C  0.33881467  0.24218869  0.90274327    -0.20700
C398        C  0.30690671  0.23296171  0.88085776    -0.08700
C399        C  0.30745846  0.21424263  0.85284893     0.30100
C400        C  0.33922767  0.20550071  0.84660977    -0.20700
C401        C  0.37170719  0.21511662  0.86794509    -0.08800
C402        C  0.37105190  0.23326217  0.89640071     0.30100
F403        F  0.40213047  0.24367611  0.91748474    -0.19300
H404        H  0.33892274  0.25653986  0.92454081     0.18500
H405        H  0.33841063  0.19128699  0.82460081     0.18500
F406        F  0.27784504  0.20556037  0.83082744    -0.19300
C407        C  0.09863868  0.76567295  0.83895510    -0.20700
C408        C  0.08004500  0.75728448  0.86822929    -0.08700
C409        C  0.10367894  0.75791000  0.89397189     0.30100
C410        C  0.14525419  0.76627094  0.89009345    -0.20700
C411        C  0.16342733  0.77365957  0.86049221    -0.08800
C412        C  0.13960977  0.77366866  0.83499074     0.30100
F413        F  0.15606445  0.78220904  0.80604529    -0.19300
H414        H  0.08105272  0.76553029  0.81886667     0.18500
H415        H  0.16292637  0.76626864  0.91006082     0.18500
F416        F  0.08669703  0.75066186  0.92269686    -0.19300
C417        C  0.91525947  0.63777372  0.85746289    -0.20700
C418        C  0.92334403  0.67545130  0.87161061    -0.08700
C419        C  0.88919614  0.67895899  0.88213258     0.30100
C420        C  0.84757252  0.64550511  0.87794434    -0.20700
C421        C  0.83943498  0.60865723  0.86237034    -0.08800
C422        C  0.87366038  0.60476340  0.85257078     0.30100
F423        F  0.86684423  0.56931156  0.83784174    -0.19300
H424        H  0.94115769  0.63468319  0.84888818     0.18500
H425        H  0.82164684  0.64922025  0.88553402     0.18500
F426        F  0.89612472  0.71504200  0.89589694    -0.19300
C427        C  0.23380513  0.74418884  0.73769822    -0.20700
C428        C  0.26483364  0.77958616  0.72140506    -0.08700
C429        C  0.29850689  0.81272288  0.73783853     0.30100
C430        C  0.29799415  0.81236336  0.77026999    -0.20700
C431        C  0.26394228  0.77902223  0.78639271    -0.08800
C432        C  0.23325344  0.74380099  0.76979327     0.30100
F433        F  0.20078800  0.71024639  0.78456339    -0.19300
H434        H  0.20792364  0.71801667  0.72550149     0.18500
H435        H  0.32210283  0.83976236  0.78258899     0.18500
F436        F  0.32921018  0.84732187  0.72281411    -0.19300
C437        C  0.09517125  0.76285247  0.67024551    -0.20700
C438        C  0.07608744  0.75196939  0.64108908    -0.08700
C439        C  0.10032548  0.75299052  0.61561839     0.30100
C440        C  0.14253254  0.76349429  0.61969468    -0.20700
C441        C  0.16112055  0.77309333  0.64917200    -0.08800
C442        C  0.13699228  0.77325217  0.67436801     0.30100
F443        F  0.15387754  0.78408482  0.70310484    -0.19300
H444        H  0.07737028  0.76284280  0.69013018     0.18500
H445        H  0.16044875  0.76348211  0.59990565     0.18500
F446        F  0.08353848  0.74447548  0.58682986    -0.19300
C447        C  0.40925153  0.17971055  0.73320330    -0.20700
C448        C  0.44764590  0.19221966  0.71816143    -0.08700
C449        C  0.48333719  0.20131670  0.73597131     0.30100
C450        C  0.48080961  0.20041326  0.76847347    -0.20700
C451        C  0.44273900  0.19053446  0.78332404    -0.08800
C452        C  0.40664469  0.17868378  0.76518866     0.30100
F453        F  0.36858686  0.16649871  0.77833283    -0.19300
H454        H  0.38104721  0.17155946  0.72002250     0.18500
H455        H  0.50895105  0.20936351  0.78194573     0.18500
F456        F  0.52096140  0.21348868  0.72213321    -0.19300
C457        C  0.34686407  0.19339334  0.61696975    -0.20700
C458        C  0.38254222  0.22205114  0.63424023    -0.08700
C459        C  0.38468868  0.25866910  0.64599663     0.30100
C460        C  0.35130804  0.26578828  0.64128082    -0.20700
C461        C  0.31478805  0.23617949  0.62537306    -0.08800
C462        C  0.31289947  0.20003232  0.61294895     0.30100
F463        F  0.27789477  0.17078055  0.59755199    -0.19300
H464        H  0.34426574  0.16470908  0.60804768     0.18500
H465        H  0.35311768  0.29352442  0.65141675     0.18500
F466        F  0.41860426  0.28703515  0.66280922    -0.19300
C467        C  0.17829023  0.46955329  0.76535067    -0.20700
C468        C  0.21033464  0.46806283  0.78200556    -0.08700
C469        C  0.24514431  0.47171209  0.76582760     0.30100
C470        C  0.24570318  0.47227111  0.73370601    -0.20700
C471        C  0.21170142  0.46924726  0.71685131    -0.08800
C472        C  0.17887858  0.47012292  0.73287968     0.30100
F473        F  0.14550394  0.46735417  0.71738332    -0.19300
H474        H  0.15118707  0.46685021  0.77731696     0.18500
H475        H  0.27171494  0.47239698  0.72191609     0.18500
F476        F  0.27760317  0.47216792  0.78107135    -0.19300
C477        C  0.22876227  0.36858574  0.61157650    -0.20700
C478        C  0.21871895  0.37650378  0.64116200    -0.08700
C479        C  0.21543719  0.34976635  0.66569997     0.30100
C480        C  0.22266430  0.31661772  0.66083545    -0.20700
C481        C  0.23367422  0.30922739  0.63160394    -0.08800
C482        C  0.23640950  0.33530718  0.60680081     0.30100
F483        F  0.24610649  0.32845986  0.57803848    -0.19300
H484        H  0.23133849  0.38853621  0.59230654     0.18500
H485        H  0.22026524  0.29691693  0.68024128     0.18500
F486        F  0.20447614  0.35503950  0.69451123    -0.19300
C487        C  0.82740505  0.29920396  0.72958065    -0.20700
C488        C  0.79140221  0.26686337  0.71447309    -0.08700
C489        C  0.75563080  0.23929850  0.73207666     0.30100
C490        C  0.75706293  0.24176797  0.76416398    -0.20700
C491        C  0.79426947  0.27128201  0.77952784    -0.08800
C492        C  0.82903977  0.30127831  0.76199917     0.30100
F493        F  0.86589540  0.32945137  0.77602508    -0.19300
H494        H  0.85545395  0.32057885  0.71645939     0.18500
H495        H  0.72993084  0.21831378  0.77718836     0.18500
F496        F  0.72003299  0.20820131  0.71832332    -0.19300
C497        C  0.79441427  0.11541929  0.61472314    -0.20700
C498        C  0.75870218  0.08076652  0.62804104    -0.08700
C499        C  0.73075621  0.08768141  0.64562782     0.30100
C500        C  0.73902903  0.12883024  0.65024781    -0.20700
C501        C  0.77493130  0.16366454  0.63708883    -0.08800
C502        C  0.80230069  0.15651003  0.61883510     0.30100
F503        F  0.83792244  0.18929349  0.60634923    -0.19300
H504        H  0.81647195  0.11062356  0.60139838     0.18500
H505        H  0.71767546  0.13355742  0.66450918     0.18500
F506        F  0.69673832  0.05491631  0.65973672    -0.19300
C507        C  0.76448609  0.51897167  0.73270249    -0.20700
C508        C  0.73469475  0.52518466  0.71703736    -0.08700
C509        C  0.70416973  0.52851173  0.73437240     0.30100
C510        C  0.70572401  0.52871236  0.76678187    -0.20700
C511        C  0.73784731  0.52596339  0.78223978    -0.08800
C512        C  0.76617164  0.51939670  0.76484373     0.30100
F513        F  0.79679219  0.51520507  0.77890169    -0.19300
H514        H  0.78800468  0.51579537  0.71994378     0.18500
H515        H  0.68370448  0.53404749  0.77968371     0.18500
F516        F  0.67532171  0.53532793  0.72018757    -0.19300
C517        C  0.84377765  0.64162933  0.62047369    -0.20700
C518        C  0.83327871  0.60302396  0.63449984    -0.08700
C519        C  0.86608231  0.59646892  0.64388948     0.30100
C520        C  0.90846608  0.62882232  0.64089060    -0.20700
C521        C  0.91886509  0.66851353  0.62903554    -0.08800
C522        C  0.88620473  0.67435478  0.61811562     0.30100
F523        F  0.89528394  0.71228225  0.60629702    -0.19300
H524        H  0.81906604  0.64746381  0.61323018     0.18500
H525        H  0.93302061  0.62372310  0.64970786     0.18500
F526        F  0.85704147  0.55929634  0.65714325    -0.19300
C527        C  0.52393300  0.77200566  0.73588427    -0.20700
C528        C  0.52788736  0.74132936  0.71965377    -0.08700
C529        C  0.52715075  0.70795569  0.73608153     0.30100
C530        C  0.52700932  0.70810122  0.76845559    -0.20700
C531        C  0.52753198  0.74143620  0.78462407    -0.08800
C532        C  0.52347473  0.77200896  0.76800328     0.30100
F533        F  0.52175541  0.80354741  0.78279707    -0.19300
H534        H  0.52367085  0.79755307  0.72364088     0.18500
H535        H  0.52999274  0.68412589  0.78073695     0.18500
F536        F  0.53091854  0.67775048  0.72108719    -0.19300
C537        C  0.62490015  0.85874984  0.61229697    -0.20700
C538        C  0.62072497  0.84056530  0.64161789    -0.08700
C539        C  0.65080095  0.86422723  0.66448856     0.30100
C540        C  0.68310423  0.90556420  0.65851960    -0.20700
C541        C  0.68648693  0.92450743  0.62974203    -0.08800
C542        C  0.65758527  0.90049822  0.60631137     0.30100
F543        F  0.66097585  0.91724374  0.57781002    -0.19300
H544        H  0.60228991  0.84087341  0.59418904     0.18500
H545        H  0.70539656  0.92326535  0.67685528     0.18500
F546        F  0.64941790  0.84724507  0.69260937    -0.19300
C547        C  0.48240146  0.61612353  0.59889552    -0.20700
C548        C  0.50445737  0.62425677  0.57095381    -0.08700
C549        C  0.53627343  0.66598446  0.56387121     0.30100
C550        C  0.54680411  0.69861968  0.58484337    -0.20700
C551        C  0.52632480  0.69045092  0.61359255    -0.08800
C552        C  0.49336714  0.64872152  0.62021711     0.30100
F553        F  0.47226692  0.63897969  0.64747497    -0.19300
H554        H  0.45800977  0.58409441  0.60488095     0.18500
H555        H  0.57197293  0.73023312  0.57874890     0.18500
F556        F  0.55765724  0.67516015  0.53673625    -0.19300
C557        C  0.60580410  0.48502405  0.59641877    -0.20700
C558        C  0.61331012  0.51178654  0.57103740    -0.08700
C559        C  0.65448446  0.54650289  0.56633114     0.30100
C560        C  0.68710949  0.55465493  0.58680577    -0.20700
C561        C  0.67963269  0.52888473  0.61281649    -0.08800
C562        C  0.63849470  0.49360259  0.61732460     0.30100
F563        F  0.62982224  0.46720537  0.64171378    -0.19300
H564        H  0.57431410  0.45821123  0.60059531     0.18500
H565        H  0.71829763  0.58187053  0.58248301     0.18500
F566        F  0.66333166  0.57266861  0.54174258    -0.19300
C567        C  0.35982504  0.34164084  0.55787076    -0.20700
C568        C  0.37801830  0.38274627  0.56964451    -0.08700
C569        C  0.36397818  0.38938022  0.59801999     0.30100
C570        C  0.33217474  0.35495798  0.61445360    -0.20700
C571        C  0.31322450  0.31392681  0.60222831    -0.08800
C572        C  0.32729478  0.30754154  0.57378427     0.30100
F573        F  0.30860271  0.26840337  0.56100479    -0.19300
H574        H  0.37007510  0.33613005  0.53585848     0.18500
H575        H  0.32214640  0.36023945  0.63660990     0.18500
F576        F  0.38164341  0.42886712  0.61007196    -0.19300
C577        C  0.13949948  0.36657654  0.17276149    -0.20700
C578        C  0.16274901  0.38722642  0.14600926    -0.08700
C579        C  0.14250298  0.37399794  0.11716172     0.30100
C580        C  0.09963921  0.34147857  0.11550111    -0.20700
C581        C  0.07689177  0.32123421  0.14246810    -0.08800
C582        C  0.09735763  0.33401810  0.17106300     0.30100
F583        F  0.07619914  0.31562395  0.19760424    -0.19300
H584        H  0.15397439  0.37560555  0.19536026     0.18500
H585        H  0.08432701  0.33181470  0.09321197     0.18500
F586        F  0.16364843  0.39302286  0.09079582    -0.19300
C587        C  0.39273289  0.12608350  0.14900087    -0.20700
C588        C  0.39040091  0.15995738  0.13633676    -0.08700
C589        C  0.35547596  0.15116496  0.11766305     0.30100
C590        C  0.32259368  0.10926566  0.11322140    -0.20700
C591        C  0.32460864  0.07561981  0.12656858    -0.08800
C592        C  0.36037532  0.08427757  0.14397702     0.30100
F593        F  0.36268572  0.05248931  0.15791958    -0.19300
H594        H  0.41921183  0.13206790  0.16350089     0.18500
H595        H  0.29499130  0.10308186  0.10004830     0.18500
F596        F  0.35169216  0.18302277  0.10542928    -0.19300
C597        C  0.23182539  0.90064376  0.16038929    -0.20700
C598        C  0.24185988  0.91921155  0.13104817    -0.08700
C599        C  0.24296700  0.89562714  0.10595370     0.30100
C600        C  0.23528189  0.85442608  0.11060660    -0.20700
C601        C  0.22676866  0.83650667  0.14034561    -0.08800
C602        C  0.22441900  0.86001035  0.16512572     0.30100
F603        F  0.21464629  0.84378932  0.19414179    -0.19300
H604        H  0.23053468  0.91811270  0.18000759     0.18500
H605        H  0.23694566  0.83696217  0.09114939     0.18500
F606        F  0.25127076  0.91226910  0.07708555    -0.19300
C607        C  0.78751446  0.68532381  0.10967624    -0.20700
C608        C  0.76186272  0.69012408  0.13128659    -0.08700
C609        C  0.74560384  0.66228180  0.15636293     0.30100
C610        C  0.75503817  0.63039579  0.16000026    -0.20700
C611        C  0.78146790  0.62557212  0.13893587    -0.08800
C612        C  0.79711680  0.65311887  0.11328373     0.30100
F613        F  0.82271801  0.65000120  0.09232978    -0.19300
H614        H  0.80047498  0.70681865  0.09025198     0.18500
H615        H  0.74223538  0.61001593  0.18001514     0.18500
F616        F  0.72209499  0.66718264  0.17823961    -0.19300
C617        C  0.87035338  0.26367950  0.16204938    -0.20700
C618        C  0.83656044  0.22942112  0.14662010    -0.08700
C619        C  0.84532810  0.20430806  0.12706217     0.30100
C620        C  0.88689777  0.21264493  0.12408074    -0.20700
C621        C  0.92028776  0.24654045  0.13993840    -0.08800
C622        C  0.91176477  0.27228058  0.15869104     0.30100
F623        F  0.94315985  0.30426579  0.17524147    -0.19300
H624        H  0.86460816  0.28343656  0.17731118     0.18500
H625        H  0.89296367  0.19219715  0.10985796     0.18500
F626        F  0.81363146  0.17042547  0.11215654    -0.19300
C627        C  0.64944681  0.80687487  0.12160692    -0.20700
C628        C  0.61434111  0.77960152  0.14004645    -0.08700
C629        C  0.61280581  0.74398595  0.15349795     0.30100
C630        C  0.64609027  0.73660827  0.14921987    -0.20700
C631        C  0.68177765  0.76461970  0.13176927    -0.08800
C632        C  0.68315668  0.79978712  0.11778769     0.30100
F633        F  0.71712029  0.82734790  0.10060032    -0.19300
H634        H  0.65158044  0.83461485  0.11110441     0.18500
H635        H  0.64465314  0.70969344  0.16058170     0.18500
F636        F  0.57932735  0.71642623  0.17110417    -0.19300
C637        C  0.46872709  0.29321469  0.26625057    -0.20700
C638        C  0.46997144  0.26140435  0.28335657    -0.08700
C639        C  0.47582719  0.23141533  0.26758271     0.30100
C640        C  0.47585183  0.23057473  0.23541521    -0.20700
C641        C  0.47069813  0.25990222  0.21819550    -0.08800
C642        C  0.46916698  0.29260422  0.23385081     0.30100
F643        F  0.46427136  0.32164995  0.21803429    -0.19300
H644        H  0.46430025  0.31668700  0.27783952     0.18500
H645        H  0.47805326  0.20568971  0.22390630     0.18500
F646        F  0.47950757  0.20152143  0.28328390    -0.19300
C647        C  0.47315463  0.35523429  0.37515781    -0.20700
C648        C  0.46360137  0.31571457  0.38685041    -0.08700
C649        C  0.46406295  0.31071432  0.41909085     0.30100
C650        C  0.47304617  0.34432559  0.43897501    -0.20700
C651        C  0.48134086  0.38355336  0.42730521    -0.08800
C652        C  0.48163667  0.38864850  0.39497905     0.30100
F653        F  0.48972348  0.42580960  0.38229128    -0.19300
H654        H  0.47309711  0.36008837  0.35050838     0.18500
H655        H  0.47261549  0.33927079  0.46362309     0.18500
F656        F  0.45622812  0.27348020  0.43149918    -0.19300
C657        C  0.23931753  0.49433182  0.23215942    -0.20700
C658        C  0.26801532  0.48633559  0.21681833    -0.08700
C659        C  0.29910581  0.48392393  0.23411852     0.30100
C660        C  0.29801017  0.48461860  0.26652889    -0.20700
C661        C  0.26596683  0.48770701  0.28173552    -0.08800
C662        C  0.23822153  0.49501138  0.26424828     0.30100
F663        F  0.20773802  0.49942356  0.27825185    -0.19300
H664        H  0.21543597  0.49678994  0.21927026     0.18500
H665        H  0.31961820  0.47882868  0.27960887     0.18500
F666        F  0.32731640  0.47615264  0.22000644    -0.19300
C667        C  0.38282070  0.51334723  0.40293129    -0.20700
C668        C  0.37213228  0.49939755  0.43357446    -0.08700
C669        C  0.32933043  0.47949642  0.44251633     0.30100
C670        C  0.29790433  0.47115642  0.42052989    -0.20700
C671        C  0.30855990  0.48298391  0.38938195    -0.08800
C672        C  0.35176772  0.50552660  0.38114570     0.30100
F673        F  0.36440194  0.51858236  0.35172997    -0.19300
H674        H  0.41554688  0.52939034  0.39542400     0.18500
H675        H  0.26508596  0.45450070  0.42780090     0.18500
F676        F  0.31754600  0.46607603  0.47198189    -0.19300
C677        C  0.35494646  0.08680273  0.35576064    -0.20700
C678        C  0.31921449  0.07811140  0.37305084    -0.08700
C679        C  0.31754067  0.11161703  0.38694971     0.30100
C680        C  0.35096043  0.15341974  0.38293505    -0.20700
C681        C  0.38583833  0.16231969  0.36427595    -0.08800
C682        C  0.38780041  0.12842483  0.35113838     0.30100
F683        F  0.42094703  0.13550864  0.33308028    -0.19300
H684        H  0.35643047  0.06142842  0.34442044     0.18500
H685        H  0.34852797  0.17892695  0.39307956     0.18500
F686        F  0.28318442  0.10394238  0.40373301    -0.19300
C687        C  0.25340497  0.76999942  0.26587548    -0.20700
C688        C  0.21689438  0.73894689  0.28104492    -0.08700
C689        C  0.18511131  0.70495708  0.26396784     0.30100
C690        C  0.18818569  0.70488559  0.23167917    -0.20700
C691        C  0.22285188  0.73869120  0.21644196    -0.08800
C692        C  0.25646641  0.76993395  0.23393068     0.30100
F693        F  0.29091870  0.80236332  0.21992802    -0.19300
H694        H  0.27851459  0.79608233  0.27867960     0.18500
H695        H  0.16185645  0.68062327  0.21856200     0.18500
F696        F  0.14931716  0.67448203  0.27799116    -0.19300
C697        C  0.24109366  0.89975170  0.38902076    -0.20700
C698        C  0.23776503  0.92248427  0.36422529    -0.08700
C699        C  0.22590710  0.90340082  0.33508945     0.30100
C700        C  0.21814237  0.86258595  0.33071892    -0.20700
C701        C  0.22142731  0.83958241  0.35534768    -0.08800
C702        C  0.23264287  0.85836347  0.38473281     0.30100
F703        F  0.23658852  0.83730206  0.40899899    -0.19300
H704        H  0.24999533  0.91395095  0.41168452     0.18500
H705        H  0.20934645  0.84888125  0.30788830     0.18500
F706        F  0.22296795  0.92471191  0.31053877    -0.19300
C707        C  0.82837810  0.53898751  0.26694982    -0.20700
C708        C  0.79462593  0.53800044  0.28297542    -0.08700
C709        C  0.76039930  0.53449322  0.26599605     0.30100
C710        C  0.76183906  0.53609523  0.23388387    -0.20700
C711        C  0.79718884  0.54098176  0.21783303    -0.08800
C712        C  0.82974887  0.54049629  0.23454509     0.30100
F713        F  0.86447017  0.54520116  0.21986475    -0.19300
H714        H  0.85506544  0.54154676  0.27947254     0.18500
H715        H  0.73596256  0.53554446  0.22152234     0.18500
F716        F  0.72621233  0.53140084  0.28045556    -0.19300
C717        C  0.68552821  0.67062024  0.42578276    -0.20700
C718        C  0.67804424  0.68077997  0.39626172    -0.08700
C719        C  0.63681008  0.65906123  0.38415448     0.30100
C720        C  0.60349043  0.62768177  0.40166980    -0.20700
C721        C  0.61094237  0.61784431  0.43147224    -0.08800
C722        C  0.65241936  0.63962129  0.44336324     0.30100
F723        F  0.66125927  0.63042930  0.47172932    -0.19300
H724        H  0.71724268  0.68708978  0.43523520     0.18500
H725        H  0.57187354  0.61128264  0.39203473     0.18500
F726        F  0.62898258  0.66743267  0.35524176    -0.19300
C727        C  0.80242122  0.64972225  0.38355510    -0.20700
C728        C  0.77451328  0.61300091  0.36699358    -0.08700
C729        C  0.73635262  0.60833081  0.35594383     0.30100
C730        C  0.72740010  0.64059922  0.36008150    -0.20700
C731        C  0.75657675  0.67848330  0.37476163    -0.08800
C732        C  0.79384722  0.68249252  0.38706249     0.30100
F733        F  0.82253513  0.71861706  0.40160236    -0.19300
H734        H  0.83210079  0.65418885  0.39210908     0.18500
H735        H  0.69870332  0.63696373  0.35014411     0.18500
F736        F  0.70834446  0.57313015  0.34012243    -0.19300
C737        C  0.70335821  0.18420980  0.23857097    -0.20700
C738        C  0.73435723  0.21936430  0.22198704    -0.08700
C739        C  0.76302997  0.25620035  0.23815161     0.30100
C740        C  0.76367225  0.25621843  0.27032595    -0.20700
C741        C  0.73552090  0.21971685  0.28699280    -0.08800
C742        C  0.70387523  0.18427526  0.27093988     0.30100
F743        F  0.67644716  0.14822973  0.28627570    -0.19300
H744        H  0.68117637  0.15541491  0.22657621     0.18500
H745        H  0.78789431  0.28404654  0.28223482     0.18500
F746        F  0.79236662  0.29129882  0.22276341    -0.19300
C747        C  0.52938466  0.82305801  0.26702236    -0.20700
C748        C  0.52536109  0.78760832  0.28255061    -0.08700
C749        C  0.51677143  0.75176436  0.26534039     0.30100
C750        C  0.51668730  0.75304043  0.23315935    -0.20700
C751        C  0.52494786  0.78992850  0.21745565    -0.08800
C752        C  0.52927319  0.82434268  0.23464185     0.30100
F753        F  0.53778450  0.86072158  0.22035448    -0.19300
H754        H  0.53612578  0.85106882  0.27982347     0.18500
H755        H  0.51270893  0.72594553  0.22042954     0.18500
F756        F  0.51084580  0.71627388  0.27964540    -0.19300
C757        C  0.63626157  0.77012201  0.33225808    -0.20700
C758        C  0.61638393  0.77613049  0.35786067    -0.08700
C759        C  0.63023696  0.77342512  0.38767294     0.30100
C760        C  0.66288617  0.76450364  0.39143926    -0.20700
C761        C  0.68267640  0.75910667  0.36560770    -0.08800
C762        C  0.66910395  0.76210516  0.33603003     0.30100
F763        F  0.68703763  0.75621914  0.31064223    -0.19300
H764        H  0.62674253  0.77205822  0.30896941     0.18500
H765        H  0.67297129  0.76214844  0.41444573     0.18500
F766        F  0.61195046  0.77870674  0.41307528    -0.19300
C767        C  0.09994239  0.34112234  0.38588054    -0.20700
C768        C  0.07624033  0.32078277  0.35934320    -0.08700
C769        C  0.09452451  0.33562555  0.33025609     0.30100
C770        C  0.13558535  0.37016335  0.32767436    -0.20700
C771        C  0.15987868  0.39077109  0.35400789    -0.08800
C772        C  0.14167271  0.37565186  0.38332696     0.30100
F773        F  0.16370021  0.39453583  0.40939318    -0.19300
H774        H  0.08615436  0.33014885  0.40852821     0.18500
H775        H  0.14835789  0.38062689  0.30471658     0.18500
F776        F  0.07211735  0.31749982  0.30414896    -0.19300
C777        C  0.87161256  0.26692928  0.34723876    -0.20700
C778        C  0.83794563  0.23305449  0.36320816    -0.08700
C779        C  0.84662929  0.20710047  0.38199438     0.30100
C780        C  0.88773824  0.21379152  0.38330318    -0.20700
C781        C  0.92078536  0.24688376  0.36654493    -0.08800
C782        C  0.91258901  0.27388730  0.34892076     0.30100
F783        F  0.94376043  0.30555847  0.33188770    -0.19300
H784        H  0.86596794  0.28741602  0.33261445     0.30500
H785        H  0.89365212  0.19265413  0.39690481     0.18500
F786        F  0.81513710  0.17383391  0.39762409    -0.19300
C787        C  0.15342371  0.49991670  0.61681155    -0.20700
C788        C  0.16109871  0.46697591  0.61011350    -0.08700
C789        C  0.14699451  0.44600562  0.58153291     0.30100
C790        C  0.12458053  0.45669024  0.56106049    -0.20700
C791        C  0.11625217  0.48888005  0.56810490    -0.08800
C792        C  0.13142261  0.51093530  0.59601054     0.30100
F793        F  0.12281076  0.54135003  0.60400685    -0.19300
H794        H  0.16381303  0.51681105  0.63846947     0.18500
H795        H  0.11300879  0.43917046  0.53970629     0.18500
F796        F  0.15347913  0.41417309  0.57353857    -0.19300
C797        C  0.84443313  0.35224172  0.60989686    -0.20700
C798        C  0.84380372  0.31377650  0.60818825    -0.08700
C799        C  0.86643411  0.30822735  0.58434556     0.30100
C800        C  0.89020595  0.34086835  0.56355002    -0.20700
C801        C  0.89193008  0.37976215  0.56568984    -0.08800
C802        C  0.86794289  0.38489845  0.58865063     0.30100
F803        F  0.86867500  0.42195686  0.59146510    -0.19300
H804        H  0.82688773  0.35711841  0.62780812     0.18500
H805        H  0.90818134  0.33592192  0.54602200     0.18500
F806        F  0.86735109  0.27199189  0.58179576    -0.19300
C807        C  0.13658056  0.66587331  0.43892447    -0.20700
C808        C  0.12081137  0.62388201  0.42980378    -0.08700
C809        C  0.12881490  0.61575203  0.39965254     0.30100
C810        C  0.15091490  0.64895554  0.37881251    -0.20700
C811        C  0.16506006  0.69099024  0.38732604    -0.08800
C812        C  0.15818889  0.69917580  0.41793061     0.30100
F813        F  0.17101175  0.73904296  0.42751415    -0.19300
H814        H  0.13025588  0.67278153  0.46190498     0.18500
H815        H  0.15588992  0.64140410  0.35565847     0.18500
F816        F  0.11453076  0.57553920  0.39007752    -0.19300
C817        C  0.89992763  0.51158568  0.39499095    -0.20700
C818        C  0.89836358  0.51586162  0.42711788    -0.08700
C819        C  0.87183496  0.52969440  0.43886609     0.30100
C820        C  0.84868315  0.54016004  0.41880986    -0.20700
C821        C  0.85091882  0.53667424  0.38663048    -0.08800
C822        C  0.87647453  0.52157269  0.37497967     0.30100
F823        F  0.87994697  0.51745341  0.34419348    -0.19300
H824        H  0.91988624  0.50093811  0.38515131     0.18500
H825        H  0.82902943  0.55120675  0.42859263     0.18500
F826        F  0.86912871  0.53442503  0.46965824    -0.19300
C827        C  0.98922943  0.34602936  0.43951587    -0.20700
C828        C  0.00462097  0.38643315  0.42665671    -0.08700
C829        C  0.01899865  0.39396073  0.39587281     0.30100
C830        C  0.01800851  0.36152330  0.37853378    -0.20700
C831        C  0.00210211  0.32125977  0.39148035    -0.08800
C832        C  0.98765854  0.31363093  0.42199884     0.30100
F833        F  0.97237896  0.27478617  0.43483008    -0.19300
H834        H  0.97786844  0.33929879  0.46307762     0.18500
H835        H  0.02903997  0.36748348  0.35488901     0.18500
F836        F  0.03448893  0.43262485  0.38267208    -0.19300
C837        C  0.98414847  0.63242712  0.56071985    -0.20700
C838        C  0.00717853  0.61404168  0.57090824    -0.08700
C839        C  0.02787143  0.62590512  0.59957187     0.30100
C840        C  0.02444824  0.65515036  0.61806894    -0.20700
C841        C  0.00160226  0.67381343  0.60765732    -0.08800
C842        C  0.98189472  0.66251079  0.57864946     0.30100
F843        F  0.96130214  0.68141991  0.56734590    -0.19300
H844        H  0.96846940  0.62396826  0.53849519     0.18500
H845        H  0.03955090  0.66326565  0.64047415     0.18500
F846        F  0.05013924  0.60829457  0.61001415    -0.19300
C847        C  0.86976078  0.38650004  0.90848572    -0.20700
C848        C  0.88966024  0.37849914  0.93305050    -0.08700
C849        C  0.88460702  0.33802299  0.93553767     0.30100
C850        C  0.86176380  0.30705948  0.91335426    -0.20700
C851        C  0.84369509  0.31553811  0.88781011    -0.08800
C852        C  0.84716396  0.35548239  0.88595343     0.30100
F853        F  0.82897113  0.36474554  0.86238725    -0.19300
H854        H  0.87311134  0.41735882  0.90603246     0.18500
H855        H  0.85939161  0.27663731  0.91580896     0.18500
F856        F  0.90228564  0.32840233  0.95928819    -0.19300
C857        C  0.13688926  0.44045092  0.91364923    -0.20700
C858        C  0.15597898  0.46622463  0.88763466    -0.08700
C859        C  0.15377801  0.50316555  0.88422654     0.30100
C860        C  0.13176949  0.51297229  0.90596953    -0.20700
C861        C  0.11120641  0.48594451  0.93118658    -0.08800
C862        C  0.11472672  0.44994302  0.93502177     0.30100
F863        F  0.09648285  0.42353539  0.95945506    -0.19300
H864        H  0.13820140  0.41203677  0.91727748     0.18500
H865        H  0.12959875  0.54093814  0.90251192     0.18500
F866        F  0.17277733  0.52979005  0.86003211    -0.19300
C867        C  0.87691507  0.53951235  0.06135649    -0.20700
C868        C  0.89662129  0.51821807  0.07308120    -0.08700
C869        C  0.89230566  0.50821222  0.10470713     0.30100
C870        C  0.86986334  0.52012510  0.12410782    -0.20700
C871        C  0.85127361  0.54274198  0.11278855    -0.08800
C872        C  0.85468938  0.55188528  0.08089956     0.30100
F873        F  0.83694988  0.57300785  0.06848475    -0.19300
H874        H  0.87984685  0.54781967  0.03712806     0.18500
H875        H  0.86769238  0.51200460  0.14832587     0.18500
F876        F  0.90977556  0.48676293  0.11702693    -0.19300
C877        C  0.12465142  0.61238368  0.10113264    -0.20700
C878        C  0.12417879  0.62030182  0.06946426    -0.08700
C879        C  0.15111142  0.66173662  0.05837081     0.30100
C880        C  0.17517003  0.69487648  0.07903026    -0.20700
C881        C  0.17351405  0.68721488  0.11096141    -0.08800
C882        C  0.14902809  0.64515617  0.12164172     0.30100
F883        F  0.14652018  0.63561152  0.15212209    -0.19300
H884        H  0.10483488  0.58074277  0.11035079     0.18500
H885        H  0.19442067  0.72673973  0.07007157     0.18500
F886        F  0.15259603  0.67073648  0.02786774    -0.19300
C887        C  0.01428514  0.39388674  0.10692110    -0.20700
C888        C  0.00054921  0.38516745  0.07605599    -0.08700
C889        C  0.98661899  0.34448845  0.06416708     0.30100
C890        C  0.98631332  0.31347396  0.08281227    -0.20700
C891        C  0.00040808  0.32239507  0.11333278    -0.08800
C892        C  0.01454734  0.36278185  0.12540412     0.30100
F893        F  0.02774636  0.37172494  0.15511053    -0.19300
H894        H  0.02523799  0.42488585  0.11663530     0.18500
H895        H  0.97516184  0.28223669  0.07346990     0.18500
F896        F  0.97258005  0.33428446  0.03469524    -0.19300
C897        C  0.97800616  0.62933608  0.94118427    -0.20700
C898        C  0.00394171  0.61373464  0.93211370    -0.08700
C899        C  0.02883593  0.62984397  0.90541448     0.30100
C900        C  0.02727427  0.66092716  0.88786763    -0.20700
C901        C  0.00227911  0.67753286  0.89746479    -0.08800
C902        C  0.97764364  0.66141186  0.92435454     0.30100
F903        F  0.95410432  0.67753514  0.93483592    -0.19300
H904        H  0.95888472  0.61746229  0.96187495     0.18500
H905        H  0.04560554  0.67205938  0.86682519     0.18500
F906        F  0.05373430  0.61477015  0.89593921    -0.19300
C907        C  0.30222406  0.85354670  0.58991491    -0.20700
C908        C  0.30933291  0.83272685  0.61425412    -0.08700
C909        C  0.34844028  0.83427387  0.61539618     0.30100
C910        C  0.37996705  0.85744877  0.59323161    -0.20700
C911        C  0.37333445  0.87986953  0.56978444    -0.08800
C912        C  0.33366714  0.87691800  0.56810015     0.30100
F913        F  0.32527980  0.89719342  0.54553431    -0.19300
H914        H  0.27251431  0.85285012  0.58815033     0.18500
H915        H  0.41015594  0.85915627  0.59511761     0.18500
F916        F  0.35637525  0.81361107  0.63791241    -0.19300
C917        C  0.44185622  0.10151398  0.56920963    -0.20700
C918        C  0.48050351  0.10254014  0.57126612    -0.08700
C919        C  0.50972952  0.12807534  0.59412047     0.30100
C920        C  0.49971163  0.15096629  0.61486300    -0.20700
C921        C  0.46092069  0.14965110  0.61272793    -0.08800
C922        C  0.43223299  0.12487514  0.58940858     0.30100
F923        F  0.39408044  0.12198046  0.58667453    -0.19300
H924        H  0.41864415  0.08222022  0.55192416     0.18500
H925        H  0.52246041  0.17004760  0.63245801     0.18500
F926        F  0.54735709  0.12996234  0.59705073    -0.19300
C927        C  0.49870758  0.88301455  0.39968826    -0.20700
C928        C  0.51252219  0.88833055  0.43042378    -0.08700
C929        C  0.53643759  0.87028653  0.43983778     0.30100
C930        C  0.54651313  0.84786458  0.41871382    -0.20700
C931        C  0.53290445  0.84279872  0.38778687    -0.08800
C932        C  0.50849951  0.86059442  0.37866233     0.30100
F933        F  0.49452386  0.85727244  0.34923974    -0.19300
H934        H  0.48044944  0.89671937  0.39171329     0.18500
H935        H  0.56540473  0.83483217  0.42658048     0.18500
F936        F  0.55175816  0.87593428  0.46901782    -0.19300
C937        C  0.69418230  0.15319282  0.42160711    -0.20700
C938        C  0.68566076  0.16178571  0.39163588    -0.08700
C939        C  0.64303132  0.14595533  0.38321373     0.30100
C940        C  0.61021260  0.12092790  0.40371604    -0.20700
C941        C  0.61876111  0.11163487  0.43326495    -0.08800
C942        C  0.66116819  0.12858028  0.44228946     0.30100
F943        F  0.67067402  0.11946063  0.47043667    -0.19300
H944        H  0.72644705  0.16487957  0.42896978     0.18500
H945        H  0.57778337  0.10829106  0.39629428     0.18500
F946        F  0.63257593  0.15382821  0.35499508    -0.19300
C947        C  0.34364471  0.98612438  0.37986411    -0.20700
C948        C  0.31698754  0.99758093  0.39440708    -0.08700
C949        C  0.32238226  0.00770320  0.42579413     0.30100
C950        C  0.35379142  0.00616447  0.44261133    -0.20700
C951        C  0.38099186  0.99499660  0.42838102    -0.08800
C952        C  0.37583945  0.98523279  0.39661707     0.30100
F953        F  0.40136192  0.97434364  0.38187467    -0.19300
H954        H  0.33966223  0.97832028  0.35556882     0.18500
H955        H  0.35697034  0.01410349  0.46687973     0.18500
F956        F  0.29659048  0.01848594  0.44023425    -0.19300
C957        C  0.63843637  0.97536944  0.61385656    -0.20700
C958        C  0.68014786  0.00112663  0.60319944    -0.08700
C959        C  0.68749942  0.02638171  0.57682361     0.30100
C960        C  0.65394530  0.02601651  0.56168897    -0.20700
C961        C  0.61223734  0.99938278  0.57172855    -0.08800
C962        C  0.60451987  0.97376206  0.59789966     0.30100
F963        F  0.56440800  0.94791906  0.60823016    -0.19300
H964        H  0.63209216  0.95614367  0.63467796     0.18500
H965        H  0.66044286  0.04554764  0.54122998     0.18500
F966        F  0.72712232  0.05042998  0.56510862    -0.19300
C967        C  0.61436578  0.48634191  0.90517739    -0.20700
C968        C  0.62377180  0.51056080  0.93217846    -0.08700
C969        C  0.66578194  0.54307052  0.93751986     0.30100
C970        C  0.69736983  0.55178260  0.91594481    -0.20700
C971        C  0.68795532  0.52873760  0.88828265    -0.08800
C972        C  0.64598945  0.49544294  0.88326167     0.30100
F973        F  0.63529406  0.47178316  0.85721606    -0.19300
H974        H  0.58213233  0.46136784  0.90046449     0.18500
H975        H  0.72925207  0.57738996  0.92077535     0.18500
F976        F  0.67637075  0.56671192  0.96360132    -0.19300
C977        C  0.49235985  0.61752719  0.90628042    -0.20700
C978        C  0.52089909  0.62386585  0.93007409    -0.08700
C979        C  0.55867817  0.66348024  0.93242361     0.30100
C980        C  0.56745286  0.69583055  0.91146974    -0.20700
C981        C  0.53928576  0.68942878  0.88736521    -0.08800
C982        C  0.50153168  0.64976130  0.88491618     0.30100
F983        F  0.47313011  0.64216646  0.86219414    -0.19300
H984        H  0.46331091  0.58722067  0.90378254     0.18500
H985        H  0.59676317  0.72590414  0.91395689     0.18500
F986        F  0.58716271  0.67121421  0.95514690    -0.19300
C987        C  0.46352121  0.30464421  0.08098694    -0.20700
C988        C  0.47256021  0.31287268  0.11266560    -0.08700
C989        C  0.49268279  0.35517279  0.12282292     0.30100
C990        C  0.50193556  0.38781979  0.10201947    -0.20700
C991        C  0.49166749  0.37945983  0.07059652    -0.08800
C992        C  0.47301116  0.33747848  0.06012118     0.30100
F993        F  0.46199013  0.32775339  0.03007151    -0.19300
H994        H  0.44834975  0.27257227  0.07230405     0.18500
H995        H  0.51647852  0.41984104  0.11075289     0.18500
F996        F  0.50230203  0.36523621  0.15299971    -0.19300
C997        C  0.38871361  0.50970169  0.09855190    -0.20700
C998        C  0.37930209  0.49178891  0.06902575    -0.08700
C999        C  0.33656285  0.46608824  0.06038096     0.30100
C1000       C  0.30408881  0.45733899  0.08154030    -0.20700
C1001       C  0.31355715  0.47437562  0.11158061    -0.08800
C1002       C  0.35657106  0.50162247  0.11947182     0.30100
F1003       F  0.36815165  0.51995547  0.14768182    -0.19300
H1004       H  0.42138329  0.52974168  0.10568494     0.18500
H1005       H  0.27152295  0.43653839  0.07453343     0.18500
F1006       F  0.32620019  0.44753734  0.03217972    -0.19300
C1007       C  0.30806991  0.33587096  0.92931205    -0.20700
C1008       C  0.31415190  0.31836546  0.90251231    -0.08700
C1009       C  0.35511522  0.33621369  0.89009203     0.30100
C1010       C  0.38969982  0.36951975  0.90545528    -0.20700
C1011       C  0.38337746  0.38638015  0.93254552    -0.08800
C1012       C  0.34220311  0.36976395  0.94408031     0.30100
F1013       F  0.33525208  0.38501861  0.97050392    -0.19300
H1014       H  0.27673558  0.32247080  0.93918595     0.18500
H1015       H  0.42125687  0.38246250  0.89608786     0.18500
F1016       F  0.36154666  0.32177592  0.86312603    -0.19300
C1017       C  0.65108053  0.64832089  0.12323468    -0.20700
C1018       C  0.68075465  0.68567670  0.10820618    -0.08700
C1019       C  0.67763527  0.68970885  0.07638461     0.30100
C1020       C  0.64563863  0.65650838  0.05959227    -0.20700
C1021       C  0.61584191  0.61857494  0.07425778    -0.08800
C1022       C  0.61855937  0.61492257  0.10646916     0.30100
F1023       F  0.59043310  0.57908048  0.12168755    -0.19300
H1024       H  0.65304927  0.64516915  0.14790083     0.18500
H1025       H  0.64430120  0.66062222  0.03495432     0.18500
F1026       F  0.70607296  0.72581433  0.06157208    -0.19300
C1027       C  0.48132576  0.14451370  0.94167960    -0.20700
C1028       C  0.49764980  0.12055484  0.92922400    -0.08700
C1029       C  0.50355355  0.12152807  0.89706719     0.30100
C1030       C  0.49094683  0.14362129  0.87790219    -0.20700
C1031       C  0.47189231  0.16525584  0.89004835    -0.08800
C1032       C  0.46845064  0.16654863  0.92240414     0.30100
F1033       F  0.45172937  0.18813842  0.93552922    -0.19300
H1034       H  0.47663073  0.14463005  0.96632933     0.18500
H1035       H  0.49482686  0.14234870  0.85324644     0.18500
F1036       F  0.52044826  0.10011252  0.88386351    -0.19300
C1037       C  0.34450698  0.86535196  0.94064463    -0.20700
C1038       C  0.38467584  0.89357439  0.92808314    -0.08700
C1039       C  0.38966993  0.89505406  0.89579306     0.30100
C1040       C  0.35536204  0.86935212  0.87675968    -0.20700
C1041       C  0.31503372  0.84180893  0.88916869    -0.08800
C1042       C  0.30990413  0.83988431  0.92143945     0.30100
F1043       F  0.27170417  0.81314648  0.93449368    -0.19300
H1044       H  0.33959632  0.86364538  0.96536107     0.18500
H1045       H  0.36037124  0.87166891  0.85203973     0.18500
F1046       F  0.42770333  0.92146499  0.88237039    -0.19300
C1047       C  0.69674993  0.15228065  0.08761835    -0.20700
C1048       C  0.68607824  0.16197470  0.11636112    -0.08700
C1049       C  0.64341011  0.14978531  0.12170881     0.30100
C1050       C  0.61252378  0.12776423  0.09900542    -0.20700
C1051       C  0.62338538  0.11697838  0.07086130    -0.08800
C1052       C  0.66593403  0.12994436  0.06527372     0.30100
F1053       F  0.67779675  0.12080149  0.03812605    -0.19300
H1054       H  0.72911391  0.16137081  0.08238683     0.18500
H1055       H  0.57979380  0.11763128  0.10392137     0.18500
F1056       F  0.63118116  0.15831432  0.14892280    -0.19300
C1057       C  0.49782718  0.84939393  0.11279791    -0.20700
C1058       C  0.53766414  0.85279869  0.11369492    -0.08700
C1059       C  0.56901716  0.88017988  0.09268800     0.30100
C1060       C  0.56062448  0.90336814  0.07131418    -0.20700
C1061       C  0.52074775  0.89983958  0.07005354    -0.08800
C1062       C  0.48923244  0.87240045  0.09107859     0.30100
F1063       F  0.45053071  0.86853740  0.09122970    -0.19300
H1064       H  0.47312824  0.82849619  0.12870768     0.18500
H1065       H  0.58573390  0.92443990  0.05573028     0.18500
F1066       F  0.60838225  0.88560563  0.09333727    -0.19300
C1067       C  0.64430534  0.99005440  0.93675186    -0.20700
C1068       C  0.62198237  0.00838186  0.92469631    -0.08700
C1069       C  0.63179810  0.02583929  0.89472980     0.30100
C1070       C  0.66390843  0.02541715  0.87761129    -0.20700
C1071       C  0.68596168  0.00697551  0.88992407    -0.08800
C1072       C  0.67568538  0.98905559  0.91950529     0.30100
F1073       F  0.69667027  0.97115345  0.93187792    -0.19300
H1074       H  0.63722846  0.97610521  0.95961500     0.18500
H1075       H  0.67135265  0.03905424  0.85467047     0.18500
F1076       F  0.61115742  0.04408641  0.88229877    -0.19300
C1077       C  0.37376812  0.97613579  0.09311438    -0.20700
C1078       C  0.38677080  0.99910489  0.06538692    -0.08700
C1079       C  0.36679455  0.02073864  0.05524026     0.30100
C1080       C  0.33422289  0.01926897  0.07263278    -0.20700
C1081       C  0.32145648  0.99681521  0.10058138    -0.08800
C1082       C  0.34182024  0.97558421  0.11095218     0.30100
F1083       F  0.33202315  0.95578217  0.13872992    -0.19300
H1084       H  0.38929329  0.95974223  0.10138685     0.18500
H1085       H  0.31875982  0.03570780  0.06434885     0.18500
F1086       F  0.37813069  0.04246042  0.02817364    -0.19300
loop_ 
_geom_bond_atom_site_label_1 
_geom_bond_atom_site_label_2 
_geom_bond_distance 
_geom_bond_site_symmetry_2 
_ccdc_geom_bond_type 
O1           C17   1.274       .  A
O1           Zn7   2.014   1_556  S
C2           O18   1.273       .  A
C2           O15   1.278       .  A
C2         C1051   1.479       .  S
O3           C16   1.277       .  A
O3          Cd10   2.097       .  S
O4           C22   1.274       .  A
O4          Cd13   2.066       .  S
O5           C19   1.274       .  A
O5           Cd9   2.063       .  S
O6           C17   1.274       .  A
O6           Cd9   2.079       .  S
Zn7          O18   2.003       .  S
Zn7          O20   2.009   1_545  S
Zn7          O12   1.929   1_554  S
O8           C19   1.278       .  A
O8          Cd13   2.096   1_556  S
Cd9          O11   2.060   1_545  S
Cd9          O12   1.996       .  S
Cd10         O14   2.092   1_554  S
Cd10         O23   2.069       .  S
Cd10         O12   2.017   1_564  S
O11          C21   1.275       .  A
O12         Cd13   2.011   1_556  S
Cd13         O15   2.095       .  S
O14          C21   1.279       .  A
C16          O20   1.273       .  A
C16        C1061   1.490       .  S
C17        C1068   1.481       .  S
C19        C1028   1.489       .  S
C21        C1038   1.487       .  S
C22          O23   1.274   1_545  A
C22        C1078   1.469   1_545  S
O24          C40   1.272       .  A
O24         Zn30   1.992   1_554  S
C25          O41   1.272       .  A
C25          O38   1.277       .  A
C25         C968   1.480       .  S
O26          C39   1.279       .  A
O26         Cd33   2.099       .  S
O27          C45   1.275       .  A
O27         Cd36   2.075       .  S
O28          C42   1.275       .  A
O28         Cd32   2.055       .  S
O29          C40   1.274       .  A
O29         Cd32   2.080       .  S
Zn30         O41   1.998       .  S
Zn30         O43   1.987       .  S
Zn30         O35   1.925   1_556  S
O31          C42   1.279       .  A
O31         Cd36   2.096   1_554  S
Cd32         O34   2.066       .  S
Cd32         O35   1.997       .  S
Cd33         O37   2.098   1_556  S
Cd33         O46   2.059       .  S
Cd33         O35   2.012   1_556  S
O34          C44   1.275       .  A
O35         Cd36   2.016   1_554  S
Cd36         O38   2.094       .  S
O37          C44   1.278       .  A
C39          O43   1.271       .  A
C39         C978   1.482       .  S
C40        C1021   1.482       .  S
C42         C991   1.484       .  S
C44         C998   1.483       .  S
C45          O46   1.274       .  A
C45        C1011   1.469       .  S
O47          C63   1.273       .  A
O47         Zn53   2.005       .  S
C48          O64   1.272       .  A
C48          O61   1.279       .  A
C48         C911   1.488       .  S
O49          C62   1.279       .  A
O49         Cd56   2.108       .  S
O50          C68   1.275       .  A
O50         Cd59   2.076       .  S
O51          C65   1.275       .  A
O51         Cd55   2.063       .  S
O52          C63   1.274       .  A
O52         Cd55   2.083       .  S
Zn53         O64   1.998       .  S
Zn53         O66   2.002   1_565  S
Zn53         O58   1.927       .  S
O54          C65   1.280       .  A
O54         Cd59   2.109       .  S
Cd55         O57   2.064   1_565  S
Cd55         O58   2.003       .  S
Cd56         O60   2.091       .  S
Cd56         O69   2.067       .  S
Cd56         O58   2.016   1_545  S
O57          C67   1.275       .  A
O58         Cd59   2.023       .  S
Cd59         O61   2.109       .  S
O60          C67   1.277       .  A
C62          O66   1.273       .  A
C62         C918   1.490       .  S
C63         C951   1.485       .  S
C65         C928   1.488       .  S
C67         C941   1.480       .  S
C68          O69   1.275   1_565  A
C68         C961   1.471       .  S
O70          C86   1.273       .  A
O70         Zn76   2.004   1_554  S
C71          O87   1.273       .  A
C71          O84   1.279       .  A
C71         C848   1.487       .  S
O72          C85   1.276       .  A
O72         Cd79   2.096       .  S
O73          C91   1.274   1_655  A
O73         Cd82   2.056       .  S
O74          C88   1.277       .  A
O74         Cd78   2.080   1_655  S
O75          C86   1.274       .  A
O75         Cd78   2.073       .  S
Zn76         O87   2.002   1_455  S
Zn76         O89   2.006       .  S
Zn76         O81   1.928   1_556  S
O77          C88   1.279       .  A
O77         Cd82   2.101   1_554  S
Cd78         O80   2.056       .  S
Cd78         O81   1.997       .  S
Cd79         O83   2.095   1_556  S
Cd79         O92   2.070       .  S
Cd79         O81   2.022   1_556  S
O80          C90   1.275       .  A
O81         Cd82   2.014   1_454  S
Cd82         O84   2.107       .  S
O83          C90   1.278       .  A
C85          O89   1.273       .  A
C85         C861   1.485       .  S
C86         C888   1.480       .  S
C88         C868   1.492       .  S
C90         C878   1.485       .  S
C91          O92   1.275       .  A
C91         C898   1.467       .  S
O93         C109   1.272       .  A
O93         Zn99   1.986   1_655  S
C94         O110   1.271       .  A
C94         O107   1.272       .  A
C94         C828   1.475       .  S
O95         C108   1.277       .  A
O95        Cd102   2.099       .  S
O96         C114   1.272       .  A
O96        Cd105   2.041       .  S
O97         C111   1.277       .  A
O97        Cd101   2.091       .  S
O98         C109   1.277       .  A
O98        Cd101   2.092       .  S
Zn99        O110   1.996       .  S
Zn99        O112   2.000       .  S
Zn99        O104   1.923       .  S
O100        C111   1.275       .  A
O100       Cd105   2.067   1_655  S
Cd101       O103   2.059       .  S
Cd101       O104   2.008   1_655  S
Cd102       O106   2.076       .  S
Cd102       O115   2.097       .  S
Cd102       O104   2.017       .  S
O103        C113   1.274   1_655  A
O104       Cd105   1.994       .  S
Cd105       O107   2.062       .  S
O106        C113   1.275       .  A
C108        O112   1.272       .  A
C108        C791   1.480       .  S
C109        C801   1.480       .  S
C111        C818   1.490       .  S
C113        C838   1.468       .  S
C114        O115   1.279       .  A
C114        C808   1.476       .  S
N116        C120   1.352       .  A
N116        C117   1.351   1_655  A
N116        C831   1.431   1_655  S
C117        C768   1.481       .  S
C117        C118   1.385       .  A
C118        C119   1.383   1_455  A
C118        H121   1.082       .  S
C119        C120   1.382       .  A
C119        H122   1.082       .  S
C120        C781   1.479       .  S
C123        C931   1.497       .  S
C123        N124   1.369       .  A
C123        N128   1.364       .  A
N124        C125   1.365       .  A
C125        C758   1.493       .  S
C125        N126   1.357       .  A
N126        C127   1.353       .  A
C127        C748   1.480       .  S
C127        N128   1.356       .  A
C129        C938   1.493       .  S
C129        N130   1.362       .  A
C129        N134   1.365       .  A
N130        C131   1.357       .  A
C131        C741   1.478       .  S
C131        N132   1.355       .  A
N132        C133   1.357       .  A
C133        C778   1.486       .  S
C133        N134   1.362       .  A
N135        C139   1.356       .  A
N135        C136   1.355       .  A
N135        C718   1.435       .  S
C136        C761   1.482       .  S
C136        C137   1.384       .  A
C137        C138   1.381       .  A
C137        H140   1.082       .  S
C138        C139   1.383       .  A
C138        H141   1.082       .  S
C139        C731   1.486       .  S
C142        C821   1.492       .  S
C142        N143   1.366       .  A
C142        N147   1.364       .  A
N143        C144   1.361       .  A
C144        C728   1.484       .  S
C144        N145   1.355       .  A
N145        C146   1.356       .  A
C146        C708   1.484       .  S
C146        N147   1.359       .  A
C148        C811   1.487       .  S
C148        N149   1.363       .  A
C148        N153   1.365       .  A
N149        C150   1.358       .  A
C150        C701   1.478       .  S
C150        N151   1.353       .  A
N151        C152   1.353       .  A
C152        C688   1.473       .  S
C152        N153   1.357       .  A
N154        C158   1.352       .  A
N154        C155   1.353   1_565  A
N154        C948   1.436       .  S
C155        C678   1.476       .  S
C155        C156   1.382       .  A
C156        C157   1.379   1_545  A
C156        H159   1.082       .  S
C157        C158   1.385       .  A
C157        H160   1.082       .  S
C158        C698   1.477       .  S
C161        C671   1.492       .  S
C161        N162   1.367       .  A
C161        N166   1.365       .  A
N162        C163   1.363       .  A
C163        C771   1.490       .  S
C163        N164   1.355       .  A
N164        C165   1.352       .  A
C165        C661   1.477       .  S
C165        N166   1.356       .  A
C167        C648   1.489       .  S
C167        N168   1.363       .  A
C167        N172   1.367       .  A
N168        C169   1.359       .  A
C169        C681   1.480       .  S
C169        N170   1.354       .  A
N170        C171   1.355       .  A
C171        C638   1.483       .  S
C171        N172   1.362       .  A
C173       C1058   1.486       .  S
C173        N174   1.363       .  A
C173        N178   1.365       .  A
N174        C175   1.358       .  A
C175        C628   1.485       .  S
C175        N176   1.355       .  A
N176        C177   1.357       .  A
C177        C751   1.482       .  S
C177        N178   1.363       .  A
C179       C1048   1.493       .  S
C179        N180   1.365       .  A
C179        N184   1.364       .  A
N180        C181   1.362       .  A
C181        C738   1.478       .  S
C181        N182   1.356       .  A
N182        C183   1.354       .  A
C183        C618   1.484       .  S
C183        N184   1.357       .  A
N185        C189   1.352       .  A
N185        C186   1.353       .  A
N185       C1018   1.432       .  S
C186        C631   1.484       .  S
C186        C187   1.384       .  A
C187        C188   1.384       .  A
C187        H190   1.082       .  S
C188        C189   1.383       .  A
C188        H191   1.082       .  S
C189        C608   1.480       .  S
C192        C871   1.500       .  S
C192        N193   1.371       .  A
C192        N197   1.366       .  A
N193        C194   1.367       .  A
C194        C611   1.496       .  S
C194        N195   1.354       .  A
N195        C196   1.351       .  A
C196        C711   1.481       .  S
C196        N197   1.357       .  A
C198        C881   1.487       .  S
C198        N199   1.363       .  A
C198        N203   1.368       .  A
N199        C200   1.354       .  A
C200        C691   1.473       .  S
C200        N201   1.351       .  A
N201        C202   1.352       .  A
C202        C601   1.486       .  S
C202        N203   1.363       .  A
N204        C208   1.358       .  A
N204        C205   1.356   1_565  A
N204       C1081   1.439       .  S
C205        C591   1.479       .  S
C205        C206   1.380       .  A
C206        C207   1.377   1_545  A
C206        H209   1.082       .  S
C207        C208   1.386       .  A
C207        H210   1.082       .  S
C208        C598   1.483       .  S
C211       C1001   1.497       .  S
C211        N212   1.371       .  A
C211        N216   1.366       .  A
N212        C213   1.365       .  A
C213        C578   1.489       .  S
C213        N214   1.353       .  A
N214        C215   1.350       .  A
C215        C658   1.478       .  S
C215        N216   1.356       .  A
C217        C988   1.489       .  S
C217        N218   1.363       .  A
C217        N222   1.362       .  A
N218        C219   1.359       .  A
C219        C641   1.482       .  S
C219        N220   1.358       .  A
N220        C221   1.357       .  A
C221        C588   1.480       .  S
C221        N222   1.358       .  A
N223        C227   1.353       .  A
N223        C224   1.353   1_655  A
N223        C891   1.433   1_655  S
C224        C581   1.482       .  S
C224        C225   1.385       .  A
C225        C226   1.381   1_455  A
C225        H228   1.082       .  S
C226        C227   1.381       .  A
C226        H229   1.082       .  S
C227        C621   1.479       .  S
O230        C246   1.272       .  A
O230       Zn236   1.997       .  S
C231        O247   1.270       .  A
C231        O244   1.273       .  A
C231        C721   1.474       .  S
O232        C245   1.277       .  A
O232       Cd239   2.096       .  S
O233        C251   1.274       .  A
O233       Cd242   2.050       .  S
O234        C248   1.280       .  A
O234       Cd238   2.102       .  S
O235        C246   1.279       .  A
O235       Cd238   2.108       .  S
Zn236       O247   1.988       .  S
Zn236       O249   1.994       .  S
Zn236       O241   1.925       .  S
O237        C248   1.274       .  A
O237       Cd242   2.068       .  S
Cd238       O240   2.059       .  S
Cd238       O241   2.012       .  S
Cd239       O243   2.072       .  S
Cd239       O252   2.107       .  S
Cd239       O241   2.021       .  S
O240        C250   1.275       .  A
O241       Cd242   1.992       .  S
Cd242       O244   2.069       .  S
O243        C250   1.276       .  A
C245        O249   1.271       .  A
C245        C548   1.477       .  S
C246        C558   1.484       .  S
C248        C651   1.494       .  S
C250        C568   1.465       .  S
C251        O252   1.279       .  A
C251        C668   1.486       .  S
C253        C551   1.489       .  S
C253        N254   1.365       .  A
C253        N258   1.364       .  A
N254        C255   1.358       .  A
C255        C538   1.480       .  S
C255        N256   1.354       .  A
N256        C257   1.355       .  A
C257        C528   1.476       .  S
C257        N258   1.359       .  A
C259        C561   1.491       .  S
C259        N260   1.365       .  A
C259        N264   1.366       .  A
N260        C261   1.359       .  A
C261        C518   1.480       .  S
C261        N262   1.353       .  A
N262        C263   1.357       .  A
C263        C508   1.484       .  S
C263        N264   1.363       .  A
N265        C269   1.356       .  A
N265        C266   1.360   1_545  A
N265        C958   1.443       .  S
C266        C541   1.483       .  S
C266        C267   1.386       .  A
C267        C268   1.376   1_565  A
C267        H270   1.083       .  S
C268        C269   1.380       .  A
C268        H271   1.082       .  S
C269        C498   1.480       .  S
C272        C798   1.482       .  S
C272        N273   1.359       .  A
C272        N277   1.363       .  A
N273        C274   1.355       .  A
C274        C501   1.480       .  S
C274        N275   1.356       .  A
N275        C276   1.360       .  A
C276        C488   1.481       .  S
C276        N277   1.361       .  A
C278        C788   1.494       .  S
C278        N279   1.367       .  A
C278        N283   1.367       .  A
N279        C280   1.360       .  A
C280        C478   1.487       .  S
C280        N281   1.353       .  A
N281        C282   1.354       .  A
C282        C471   1.482       .  S
C282        N283   1.360       .  A
N284        C288   1.356       .  A
N284        C285   1.356       .  A
N284        C571   1.437       .  S
C285        C481   1.486       .  S
C285        C286   1.385       .  A
C286        C287   1.380       .  A
C286        H289   1.082       .  S
C287        C288   1.381       .  A
C287        H290   1.082       .  S
C288        C461   1.482       .  S
C291        C921   1.487       .  S
C291        N292   1.363       .  A
C291        N296   1.368       .  A
N292        C293   1.356       .  A
C293        C458   1.479       .  S
C293        N294   1.352       .  A
N294        C295   1.357       .  A
C295        C448   1.481       .  S
C295        N296   1.364       .  A
C297        C908   1.490       .  S
C297        N298   1.367       .  A
C297        N302   1.367       .  A
N298        C299   1.359       .  A
C299        C441   1.486       .  S
C299        N300   1.351       .  A
N300        C301   1.354       .  A
C301        C428   1.478       .  S
C301        N302   1.361       .  A
N303        C307   1.359   1_655  A
N303        C304   1.359       .  A
N303        C841   1.439   1_655  S
C304        C521   1.486       .  S
C304        C305   1.382       .  A
C305        C306   1.377   1_655  A
C305        H308   1.082       .  S
C306        C307   1.384       .  A
C306        H309   1.082       .  S
C307        C438   1.487       .  S
N310        C314   1.358       .  A
N310        C311   1.357   1_455  A
N310        C901   1.441       .  S
C311        C418   1.480       .  S
C311        C312   1.381       .  A
C312        C313   1.377   1_655  A
C312        H315   1.082       .  S
C313        C314   1.384       .  A
C313        H316   1.082       .  S
C314        C408   1.482       .  S
C317       C1031   1.495       .  S
C317        N318   1.368       .  A
C317        N322   1.370       .  A
N318        C319   1.357       .  A
C319        C451   1.485       .  S
C319        N320   1.353       .  A
N320        C321   1.355       .  A
C321        C401   1.490       .  S
C321        N322   1.363       .  A
C323       C1041   1.485       .  S
C323        N324   1.367       .  A
C323        N328   1.364       .  A
N324        C325   1.362       .  A
C325        C411   1.485       .  S
C325        N326   1.354       .  A
N326        C327   1.353       .  A
C327        C431   1.479       .  S
C327        N328   1.356       .  A
C329        C981   1.484       .  S
C329        N330   1.363       .  A
C329        N334   1.364       .  A
N330        C331   1.360       .  A
C331        C531   1.479       .  S
C331        N332   1.355       .  A
N332        C333   1.353       .  A
C333        C388   1.478       .  S
C333        N334   1.358       .  A
C335        C971   1.489       .  S
C335        N336   1.365       .  A
C335        N340   1.361       .  A
N336        C337   1.363       .  A
C337        C511   1.482       .  S
C337        N338   1.359       .  A
N338        C339   1.355       .  A
C339        C421   1.476       .  S
C339        N340   1.355       .  A
N341        C345   1.353       .  A
N341        C342   1.355   1_545  A
N341       C1071   1.438       .  S
C342        C391   1.480       .  S
C342        C343   1.383       .  A
C343        C344   1.379   1_565  A
C343        H346   1.082       .  S
C344        C345   1.384       .  A
C344        H347   1.082       .  S
C345        C378   1.475       .  S
C348        C851   1.493       .  S
C348        N349   1.370       .  A
C348        N353   1.367       .  A
N349        C350   1.363       .  A
C350        C491   1.479       .  S
C350        N351   1.351       .  A
N351        C352   1.350       .  A
C352        C381   1.487       .  S
C352        N353   1.359       .  A
C354        C858   1.490       .  S
C354        N355   1.366       .  A
C354        N359   1.362       .  A
N355        C356   1.364       .  A
C356        C468   1.483       .  S
C356        N357   1.359       .  A
N357        C358   1.354       .  A
C358        C371   1.485       .  S
C358        N359   1.355       .  A
N360        C364   1.359       .  A
N360        C361   1.357       .  A
N360       C1008   1.439       .  S
C361        C368   1.483       .  S
C361        C362   1.380       .  A
C362        C363   1.378       .  A
C362        H365   1.082       .  S
C363        C364   1.387       .  A
C363        H366   1.082       .  S
C364        C398   1.488       .  S
C367        C368   1.402       .  A
C367        C372   1.398       .  A
C367        H374   1.083       .  S
C368        C369   1.405       .  A
C369        C370   1.402       .  A
C369        F376   1.357       .  S
C370        C371   1.408       .  A
C370        H375   1.083       .  S
C371        C372   1.409       .  A
C372        F373   1.357       .  S
C377        C378   1.404       .  A
C377        C382   1.406       .  A
C377        H384   1.083       .  S
C378        C379   1.399       .  A
C379        C380   1.390       .  A
C379        F386   1.358       .  S
C380        C381   1.409       .  A
C380        H385   1.083       .  S
C381        C382   1.411       .  A
C382        F383   1.357       .  S
C387        C388   1.405       .  A
C387        C392   1.402       .  A
C387        H394   1.083       .  S
C388        C389   1.407       .  A
C389        C390   1.396       .  A
C389        F396   1.358       .  S
C390        C391   1.402       .  A
C390        H395   1.083       .  S
C391        C392   1.405       .  A
C392        F393   1.357       .  S
C397        C398   1.409       .  A
C397        C402   1.412       .  A
C397        H404   1.083       .  S
C398        C399   1.403       .  A
C399        C400   1.390       .  A
C399        F406   1.358       .  S
C400        C401   1.406       .  A
C400        H405   1.083       .  S
C401        C402   1.411       .  A
C402        F403   1.357       .  S
C407        C408   1.399       .  A
C407        C412   1.391       .  A
C407        H414   1.083       .  S
C408        C409   1.408       .  A
C409        C410   1.408       .  A
C409        F416   1.357       .  S
C410        C411   1.408       .  A
C410        H415   1.083       .  S
C411        C412   1.411       .  A
C412        F413   1.358       .  S
C417        C418   1.403       .  A
C417        C422   1.398       .  A
C417        H424   1.083       .  S
C418        C419   1.405       .  A
C419        C420   1.399       .  A
C419        F426   1.357       .  S
C420        C421   1.405       .  A
C420        H425   1.083       .  S
C421        C422   1.406       .  A
C422        F423   1.357       .  S
C427        C428   1.403       .  A
C427        C432   1.392       .  A
C427        H434   1.084       .  S
C428        C429   1.408       .  A
C429        C430   1.406       .  A
C429        F436   1.357       .  S
C430        C431   1.408       .  A
C430        H435   1.083       .  S
C431        C432   1.405       .  A
C432        F433   1.358       .  S
C437        C438   1.401       .  A
C437        C442   1.394       .  A
C437        H444   1.083       .  S
C438        C439   1.409       .  A
C439        C440   1.406       .  A
C439        F446   1.356       .  S
C440        C441   1.407       .  A
C440        H445   1.083       .  S
C441        C442   1.410       .  A
C442        F443   1.358       .  S
C447        C448   1.402       .  A
C447        C452   1.389       .  A
C447        H454   1.084       .  S
C448        C449   1.408       .  A
C449        C450   1.412       .  A
C449        F456   1.357       .  S
C450        C451   1.410       .  A
C450        H455   1.083       .  S
C451        C452   1.407       .  A
C452        F453   1.357       .  S
C457        C458   1.406       .  A
C457        C462   1.403       .  A
C457        H464   1.083       .  S
C458        C459   1.407       .  A
C459        C460   1.397       .  A
C459        F466   1.358       .  S
C460        C461   1.403       .  A
C460        H465   1.083       .  S
C461        C462   1.406       .  A
C462        F463   1.357       .  S
C467        C468   1.408       .  A
C467        C472   1.408       .  A
C467        H474   1.083       .  S
C468        C469   1.406       .  A
C469        C470   1.393       .  A
C469        F476   1.358       .  S
C470        C471   1.403       .  A
C470        H475   1.084       .  S
C471        C472   1.409       .  A
C472        F473   1.357       .  S
C477        C478   1.407       .  A
C477        C482   1.407       .  A
C477        H484   1.083       .  S
C478        C479   1.410       .  A
C479        C480   1.393       .  A
C479        F486   1.358       .  S
C480        C481   1.400       .  A
C480        H485   1.083       .  S
C481        C482   1.409       .  A
C482        F483   1.357       .  S
C487        C488   1.409       .  A
C487        C492   1.407       .  A
C487        H494   1.083       .  S
C488        C489   1.404       .  A
C489        C490   1.394       .  A
C489        F496   1.358       .  S
C490        C491   1.405       .  A
C490        H495   1.083       .  S
C491        C492   1.407       .  A
C492        F493   1.357       .  S
C497        C498   1.401       .  A
C497        C502   1.399       .  A
C497        H504   1.083       .  S
C498        C499   1.406       .  A
C499        C500   1.399       .  A
C499        F506   1.357       .  S
C500        C501   1.404       .  A
C500        H505   1.083       .  S
C501        C502   1.409       .  A
C502        F503   1.357       .  S
C507        C508   1.405       .  A
C507        C512   1.395       .  A
C507        H514   1.084       .  S
C508        C509   1.409       .  A
C509        C510   1.406       .  A
C509        F516   1.357       .  S
C510        C511   1.407       .  A
C510        H515   1.083       .  S
C511        C512   1.406       .  A
C512        F513   1.358       .  S
C517        C518   1.404       .  A
C517        C522   1.402       .  A
C517        H524   1.083       .  S
C518        C519   1.408       .  A
C519        C520   1.400       .  A
C519        F526   1.358       .  S
C520        C521   1.403       .  A
C520        H525   1.083       .  S
C521        C522   1.407       .  A
C522        F523   1.357       .  S
C527        C528   1.402       .  A
C527        C532   1.393       .  A
C527        H534   1.084       .  S
C528        C529   1.407       .  A
C529        C530   1.404       .  A
C529        F536   1.357       .  S
C530        C531   1.407       .  A
C530        H535   1.083       .  S
C531        C532   1.407       .  A
C532        F533   1.358       .  S
C537        C538   1.407       .  A
C537        C542   1.405       .  A
C537        H544   1.087       .  S
C538        C539   1.407       .  A
C539        C540   1.391       .  A
C539        F546   1.358       .  S
C540        C541   1.402       .  A
C540        H545   1.087       .  S
C541        C542   1.408       .  A
C542        F543   1.357       .  S
C547        C548   1.402       .  A
C547        C552   1.402       .  A
C547        H554   1.084       .  S
C548        C549   1.405       .  A
C549        C550   1.396       .  A
C549        F556   1.358       .  S
C550        C551   1.407       .  A
C550        H555   1.083       .  S
C551        C552   1.413       .  A
C552        F553   1.357       .  S
C557        C558   1.405       .  A
C557        C562   1.407       .  A
C557        H564   1.084       .  S
C558        C559   1.407       .  A
C559        C560   1.396       .  A
C559        F566   1.358       .  S
C560        C561   1.405       .  A
C560        H565   1.084       .  S
C561        C562   1.413       .  A
C562        F563   1.357       .  S
C567        C568   1.401       .  A
C567        C572   1.392       .  A
C567        H574   1.084       .  S
C568        C569   1.405       .  A
C569        C570   1.399       .  A
C569        F576   1.357       .  S
C570        C571   1.404       .  A
C570        H575   1.083       .  S
C571        C572   1.404       .  A
C572        F573   1.357       .  S
C577        C578   1.409       .  A
C577        C582   1.392       .  A
C577        H584   1.083       .  S
C578        C579   1.409       .  A
C579        C580   1.409       .  A
C579        F586   1.357       .  S
C580        C581   1.407       .  A
C580        H585   1.083       .  S
C581        C582   1.401       .  A
C582        F583   1.358       .  S
C587        C588   1.404       .  A
C587        C592   1.397       .  A
C587        H594   1.083       .  S
C588        C589   1.409       .  A
C589        C590   1.401       .  A
C589        F596   1.357       .  S
C590        C591   1.402       .  A
C590        H595   1.083       .  S
C591        C592   1.405       .  A
C592        F593   1.357       .  S
C597        C598   1.400       .  A
C597        C602   1.391       .  A
C597        H604   1.084       .  S
C598        C599   1.408       .  A
C599        C600   1.407       .  A
C599        F606   1.356       .  S
C600        C601   1.407       .  A
C600        H605   1.083       .  S
C601        C602   1.412       .  A
C602        F603   1.358       .  S
C607        C608   1.405       .  A
C607        C612   1.409       .  A
C607        H614   1.083       .  S
C608        C609   1.399       .  A
C609        C610   1.394       .  A
C609        F616   1.358       .  S
C610        C611   1.411       .  A
C610        H615   1.083       .  S
C611        C612   1.412       .  A
C612        F613   1.356       .  S
C617        C618   1.406       .  A
C617        C622   1.396       .  A
C617        H624   1.083       .  S
C618        C619   1.411       .  A
C619        C620   1.404       .  A
C619        F626   1.357       .  S
C620        C621   1.403       .  A
C620        H625   1.083       .  S
C621        C622   1.403       .  A
C622        F623   1.357       .  S
C627        C628   1.408       .  A
C627        C632   1.403       .  A
C627        H634   1.083       .  S
C628        C629   1.409       .  A
C629        C630   1.397       .  A
C629        F636   1.358       .  S
C630        C631   1.402       .  A
C630        H635   1.083       .  S
C631        C632   1.406       .  A
C632        F633   1.357       .  S
C637        C638   1.406       .  A
C637        C642   1.405       .  A
C637        H644   1.083       .  S
C638        C639   1.408       .  A
C639        C640   1.395       .  A
C639        F646   1.358       .  S
C640        C641   1.402       .  A
C640        H645   1.084       .  S
C641        C642   1.410       .  A
C642        F643   1.357       .  S
C647        C648   1.403       .  A
C647        C652   1.400       .  A
C647        H654   1.083       .  S
C648        C649   1.411       .  A
C649        C650   1.403       .  A
C649        F656   1.358       .  S
C650        C651   1.407       .  A
C650        H655   1.083       .  S
C651        C652   1.413       .  A
C652        F653   1.357       .  S
C657        C658   1.403       .  A
C657        C662   1.393       .  A
C657        H664   1.084       .  S
C658        C659   1.408       .  A
C659        C660   1.407       .  A
C659        F666   1.357       .  S
C660        C661   1.407       .  A
C660        H665   1.083       .  S
C661        C662   1.404       .  A
C662        F663   1.358       .  S
C667        C668   1.405       .  A
C667        C672   1.394       .  A
C667        H674   1.084       .  S
C668        C669   1.408       .  A
C669        C670   1.406       .  A
C669        F676   1.357       .  S
C670        C671   1.411       .  A
C670        H675   1.083       .  S
C671        C672   1.410       .  A
C672        F673   1.357       .  S
C677        C678   1.401       .  A
C677        C682   1.395       .  A
C677        H684   1.083       .  S
C678        C679   1.404       .  A
C679        C680   1.402       .  A
C679        F686   1.357       .  S
C680        C681   1.406       .  A
C680        H685   1.083       .  S
C681        C682   1.409       .  A
C682        F683   1.358       .  S
C687        C688   1.401       .  A
C687        C692   1.390       .  A
C687        H694   1.084       .  S
C688        C689   1.408       .  A
C689        C690   1.405       .  A
C689        F696   1.358       .  S
C690        C691   1.407       .  A
C690        H695   1.083       .  S
C691        C692   1.403       .  A
C692        F693   1.358       .  S
C697        C698   1.405       .  A
C697        C702   1.403       .  A
C697        H704   1.083       .  S
C698        C699   1.403       .  A
C699        C700   1.392       .  A
C699        F706   1.358       .  S
C700        C701   1.405       .  A
C700        H705   1.083       .  S
C701        C702   1.408       .  A
C702        F703   1.357       .  S
C707        C708   1.408       .  A
C707        C712   1.406       .  A
C707        H714   1.083       .  S
C708        C709   1.407       .  A
C709        C710   1.393       .  A
C709        F716   1.358       .  S
C710        C711   1.404       .  A
C710        H715   1.084       .  S
C711        C712   1.408       .  A
C712        F713   1.357       .  S
C717        C718   1.399       .  A
C717        C722   1.391       .  A
C717        H724   1.082       .  S
C718        C719   1.404       .  A
C719        C720   1.399       .  A
C719        F726   1.356       .  S
C720        C721   1.406       .  A
C720        H725   1.083       .  S
C721        C722   1.408       .  A
C722        F723   1.358       .  S
C727        C728   1.405       .  A
C727        C732   1.404       .  A
C727        H734   1.083       .  S
C728        C729   1.408       .  A
C729        C730   1.399       .  A
C729        F736   1.358       .  S
C730        C731   1.403       .  A
C730        H735   1.083       .  S
C731        C732   1.407       .  A
C732        F733   1.357       .  S
C737        C738   1.405       .  A
C737        C742   1.404       .  A
C737        H744   1.083       .  S
C738        C739   1.406       .  A
C739        C740   1.395       .  A
C739        F746   1.358       .  S
C740        C741   1.403       .  A
C740        H745   1.084       .  S
C741        C742   1.409       .  A
C742        F743   1.357       .  S
C747        C748   1.406       .  A
C747        C752   1.405       .  A
C747        H754   1.083       .  S
C748        C749   1.405       .  A
C749        C750   1.396       .  A
C749        F756   1.358       .  S
C750        C751   1.405       .  A
C750        H755   1.084       .  S
C751        C752   1.409       .  A
C752        F753   1.357       .  S
C757        C758   1.409       .  A
C757        C762   1.394       .  A
C757        H764   1.083       .  S
C758        C759   1.411       .  A
C759        C760   1.409       .  A
C759        F766   1.357       .  S
C760        C761   1.406       .  A
C760        H765   1.083       .  S
C761        C762   1.401       .  A
C762        F763   1.358       .  S
C767        C768   1.406       .  A
C767        C772   1.407       .  A
C767        H774   1.083       .  S
C768        C769   1.401       .  A
C769        C770   1.392       .  A
C769        F776   1.358       .  S
C770        C771   1.409       .  A
C770        H775   1.083       .  S
C771        C772   1.410       .  A
C772        F773   1.357       .  S
C777        C778   1.407       .  A
C777        C782   1.396       .  A
C777        H784   1.083       .  S
C778        C779   1.410       .  A
C779        C780   1.404       .  A
C779        F786   1.357       .  S
C780        C781   1.402       .  A
C780        H785   1.083       .  S
C781        C782   1.403       .  A
C782        F783   1.358       .  S
C787        C788   1.411       .  A
C787        C792   1.403       .  A
C787        H794   1.083       .  S
C788        C789   1.412       .  A
C789        C790   1.398       .  A
C789        F796   1.357       .  S
C790        C791   1.403       .  A
C790        H795   1.084       .  S
C791        C792   1.405       .  A
C792        F793   1.358       .  S
C797        C798   1.407       .  A
C797        C802   1.403       .  A
C797        H804   1.083       .  S
C798        C799   1.408       .  A
C799        C800   1.392       .  A
C799        F806   1.357       .  S
C800        C801   1.404       .  A
C800        H805   1.084       .  S
C801        C802   1.407       .  A
C802        F803   1.357       .  S
C807        C808   1.402       .  A
C807        C812   1.399       .  A
C807        H814   1.084       .  S
C808        C809   1.407       .  A
C809        C810   1.395       .  A
C809        F816   1.358       .  S
C810        C811   1.406       .  A
C810        H815   1.083       .  S
C811        C812   1.413       .  A
C812        F813   1.357       .  S
C817        C818   1.407       .  A
C817        C822   1.399       .  A
C817        H824   1.083       .  S
C818        C819   1.409       .  A
C819        C820   1.402       .  A
C819        F826   1.357       .  S
C820        C821   1.408       .  A
C820        H825   1.083       .  S
C821        C822   1.411       .  A
C822        F823   1.357       .  S
C827        C828   1.406   1_655  A
C827        C832   1.392       .  A
C827        H834   1.083       .  S
C828        C829   1.410       .  A
C829        C830   1.398       .  A
C829        F836   1.357       .  S
C830        C831   1.400       .  A
C830        H835   1.083       .  S
C831        C832   1.399   1_455  A
C832        F833   1.357       .  S
C837        C838   1.400   1_655  A
C837        C842   1.392       .  A
C837        H844   1.084       .  S
C838        C839   1.405       .  A
C839        C840   1.401       .  A
C839        F846   1.357       .  S
C840        C841   1.406       .  A
C840        H845   1.083       .  S
C841        C842   1.404   1_455  A
C842        F843   1.357       .  S
C847        C848   1.406       .  A
C847        C852   1.407       .  A
C847        H854   1.083       .  S
C848        C849   1.408       .  A
C849        C850   1.397       .  A
C849        F856   1.358       .  S
C850        C851   1.406       .  A
C850        H855   1.083       .  S
C851        C852   1.412       .  A
C852        F853   1.357       .  S
C857        C858   1.406       .  A
C857        C862   1.394       .  A
C857        H864   1.083       .  S
C858        C859   1.411       .  A
C859        C860   1.407       .  A
C859        F866   1.357       .  S
C860        C861   1.407       .  A
C860        H865   1.083       .  S
C861        C862   1.406       .  A
C862        F863   1.358       .  S
C867        C868   1.408       .  A
C867        C872   1.408       .  A
C867        H874   1.083       .  S
C868        C869   1.407       .  A
C869        C870   1.399       .  A
C869        F876   1.358       .  S
C870        C871   1.410       .  A
C870        H875   1.083       .  S
C871        C872   1.413       .  A
C872        F873   1.357       .  S
C877        C878   1.405       .  A
C877        C882   1.394       .  A
C877        H884   1.083       .  S
C878        C879   1.409       .  A
C879        C880   1.403       .  A
C879        F886   1.357       .  S
C880        C881   1.407       .  A
C880        H885   1.083       .  S
C881        C882   1.410       .  A
C882        F883   1.358       .  S
C887        C888   1.409       .  A
C887        C892   1.401       .  A
C887        H894   1.083       .  S
C888        C889   1.410   1_455  A
C889        C890   1.393       .  A
C889        F896   1.358       .  S
C890        C891   1.398   1_655  A
C890        H895   1.083       .  S
C891        C892   1.402       .  A
C892        F893   1.357       .  S
C897        C898   1.401   1_655  A
C897        C902   1.393       .  A
C897        H904   1.084       .  S
C898        C899   1.404       .  A
C899        C900   1.399       .  A
C899        F906   1.357       .  S
C900        C901   1.405       .  A
C900        H905   1.082       .  S
C901        C902   1.407   1_455  A
C902        F903   1.357       .  S
C907        C908   1.404       .  A
C907        C912   1.396       .  A
C907        H914   1.083       .  S
C908        C909   1.412       .  A
C909        C910   1.406       .  A
C909        F916   1.357       .  S
C910        C911   1.406       .  A
C910        H915   1.083       .  S
C911        C912   1.409       .  A
C912        F913   1.358       .  S
C917        C918   1.407       .  A
C917        C922   1.397       .  A
C917        H924   1.084       .  S
C918        C919   1.410       .  A
C919        C920   1.407       .  A
C919        F926   1.357       .  S
C920        C921   1.407       .  A
C920        H925   1.083       .  S
C921        C922   1.408       .  A
C922        F923   1.358       .  S
C927        C928   1.404       .  A
C927        C932   1.398       .  A
C927        H934   1.083       .  S
C928        C929   1.408       .  A
C929        C930   1.406       .  A
C929        F936   1.357       .  S
C930        C931   1.410       .  A
C930        H935   1.083       .  S
C931        C932   1.413       .  A
C932        F933   1.357       .  S
C937        C938   1.410       .  A
C937        C942   1.403       .  A
C937        H944   1.083       .  S
C938        C939   1.413       .  A
C939        C940   1.397       .  A
C939        F946   1.357       .  S
C940        C941   1.402       .  A
C940        H945   1.084       .  S
C941        C942   1.407       .  A
C942        F943   1.358       .  S
C947        C948   1.402       .  A
C947        C952   1.404       .  A
C947        H954   1.082       .  S
C948        C949   1.399   1_565  A
C949        C950   1.392       .  A
C949        F956   1.357       .  S
C950        C951   1.407   1_545  A
C950        H955   1.083       .  S
C951        C952   1.412       .  A
C952        F953   1.357       .  S
C957        C958   1.404   1_565  A
C957        C962   1.402       .  A
C957        H964   1.095       .  S
C958        C959   1.408       .  A
C959        C960   1.392       .  A
C959        F966   1.357       .  S
C960        C961   1.400   1_545  A
C960        H965   1.087       .  S
C961        C962   1.407       .  A
C962        F963   1.357       .  S
C967        C968   1.405       .  A
C967        C972   1.403       .  A
C967        H974   1.084       .  S
C968        C969   1.406       .  A
C969        C970   1.395       .  A
C969        F976   1.358       .  S
C970        C971   1.408       .  A
C970        H975   1.083       .  S
C971        C972   1.411       .  A
C972        F973   1.357       .  S
C977        C978   1.404       .  A
C977        C982   1.402       .  A
C977        H984   1.084       .  S
C978        C979   1.410       .  A
C979        C980   1.396       .  A
C979        F986   1.358       .  S
C980        C981   1.404       .  A
C980        H985   1.084       .  S
C981        C982   1.411       .  A
C982        F983   1.357       .  S
C987        C988   1.410       .  A
C987        C992   1.401       .  A
C987        H994   1.083       .  S
C988        C989   1.409       .  A
C989        C990   1.396       .  A
C989        F996   1.357       .  S
C990        C991   1.406       .  A
C990        H995   1.083       .  S
C991        C992   1.407       .  A
C992        F993   1.357       .  S
C997        C998   1.401       .  A
C997       C1002   1.396       .  A
C997       H1004   1.084       .  S
C998        C999   1.408       .  A
C999       C1000   1.407       .  A
C999       F1006   1.358       .  S
C1000      C1001   1.411       .  A
C1000      H1005   1.083       .  S
C1001      C1002   1.414       .  A
C1002      F1003   1.357       .  S
C1007      C1008   1.403       .  A
C1007      C1012   1.392       .  A
C1007      H1014   1.083       .  S
C1008      C1009   1.406       .  A
C1009      C1010   1.402       .  A
C1009      F1016   1.356       .  S
C1010      C1011   1.404       .  A
C1010      H1015   1.083       .  S
C1011      C1012   1.403       .  A
C1012      F1013   1.358       .  S
C1017      C1018   1.401       .  A
C1017      C1022   1.401       .  A
C1017      H1024   1.082       .  S
C1018      C1019   1.398       .  A
C1019      C1020   1.391       .  A
C1019      F1026   1.357       .  S
C1020      C1021   1.407       .  A
C1020      H1025   1.083       .  S
C1021      C1022   1.411       .  A
C1022      F1023   1.357       .  S
C1027      C1028   1.407       .  A
C1027      C1032   1.405       .  A
C1027      H1034   1.083       .  S
C1028      C1029   1.409       .  A
C1029      C1030   1.397       .  A
C1029      F1036   1.358       .  S
C1030      C1031   1.408       .  A
C1030      H1035   1.083       .  S
C1031      C1032   1.412       .  A
C1032      F1033   1.357       .  S
C1037      C1038   1.408       .  A
C1037      C1042   1.403       .  A
C1037      H1044   1.083       .  S
C1038      C1039   1.409       .  A
C1039      C1040   1.395       .  A
C1039      F1046   1.358       .  S
C1040      C1041   1.404       .  A
C1040      H1045   1.083       .  S
C1041      C1042   1.409       .  A
C1042      F1043   1.357       .  S
C1047      C1048   1.408       .  A
C1047      C1052   1.395       .  A
C1047      H1054   1.083       .  S
C1048      C1049   1.413       .  A
C1049      C1050   1.405       .  A
C1049      F1056   1.357       .  S
C1050      C1051   1.405       .  A
C1050      H1055   1.084       .  S
C1051      C1052   1.404       .  A
C1052      F1053   1.358       .  S
C1057      C1058   1.407       .  A
C1057      C1062   1.406       .  A
C1057      H1064   1.083       .  S
C1058      C1059   1.407       .  A
C1059      C1060   1.397       .  A
C1059      F1066   1.358       .  S
C1060      C1061   1.407       .  A
C1060      H1065   1.083       .  S
C1061      C1062   1.411       .  A
C1062      F1063   1.357       .  S
C1067      C1068   1.404   1_565  A
C1067      C1072   1.393       .  A
C1067      H1074   1.084       .  S
C1068      C1069   1.411       .  A
C1069      C1070   1.403       .  A
C1069      F1076   1.357       .  S
C1070      C1071   1.404       .  A
C1070      H1075   1.083       .  S
C1071      C1072   1.401   1_545  A
C1072      F1073   1.357       .  S
C1077      C1078   1.403       .  A
C1077      C1082   1.400       .  A
C1077      H1084   1.083       .  S
C1078      C1079   1.403   1_565  A
C1079      C1080   1.394       .  A
C1079      F1086   1.358       .  S
C1080      C1081   1.403   1_545  A
C1080      H1085   1.083       .  S
C1081      C1082   1.406       .  A
C1082      F1083   1.356       .  S
