geometry optimzed in LAMMPS
_audit_creation_date              2020-11-30 
_audit_creation_method            'lammps2cif' 
_symmetry_space_group_name_H-M    'P1' 
_symmetry_Int_Tables_number       1 
_symmetry_cell_setting            triclinic 
loop_ 
_symmetry_equiv_pos_as_xyz 
  x,y,z 
_cell_length_a                    27.34818929 
_cell_length_b                    26.81285023155529 
_cell_length_c                    54.01184363377114 
_cell_angle_alpha                 90.42627960682783 
_cell_angle_beta                  90.33604871414845 
_cell_angle_gamma                 90.02755852104688 
loop_ 
_atom_site_label 
_atom_site_type_symbol 
_atom_site_fract_x 
_atom_site_fract_y 
_atom_site_fract_z 
_atom_site_charge 
N1          N  0.33613143  0.25253282  0.40869153    -0.35700
N2          N  0.34803802  0.17603338  0.37000517    -0.56300
N3          N  0.36923522  0.25340229  0.33511797    -0.35700
N4          N  0.35033059  0.33102612  0.37193360    -0.56300
C5          C  0.31343806  0.21257413  0.41872631     0.27900
C6          C  0.31901198  0.29372395  0.42038926     0.27900
C7          C  0.36796056  0.21259534  0.32003126     0.27900
C8          C  0.36573121  0.29443104  0.32063263     0.27900
C9          C  0.34612672  0.14775537  0.39050738     0.36500
C10         C  0.36840185  0.14717114  0.35223767     0.36500
C11         C  0.35336964  0.35845326  0.39300568     0.36500
C12         C  0.36825622  0.35987008  0.35363754     0.36500
C13         C  0.28111273  0.22856217  0.43678176    -0.21000
C14         C  0.28458795  0.27976708  0.43782440    -0.21000
C15         C  0.36301277  0.22794744  0.29568641    -0.21000
C16         C  0.36150699  0.27936930  0.29606538    -0.21000
C17         C  0.36502840  0.10073677  0.38579476    -0.22100
C18         C  0.37980352  0.10055178  0.36159671    -0.22100
C19         C  0.37270563  0.40511028  0.38802335    -0.22100
C20         C  0.38224836  0.40597275  0.36307580    -0.22100
C21         C  0.32294977  0.16211296  0.41257972    -0.17400
C22         C  0.33513436  0.34324911  0.41618489    -0.17400
C23         C  0.37236676  0.34483654  0.32860450    -0.17400
C24         C  0.37482098  0.16218089  0.32753369    -0.17400
H25         H  0.25731743  0.20581823  0.44798566     0.15500
H26         H  0.26354733  0.30389516  0.44985188     0.15500
H27         H  0.36133827  0.20454184  0.27928772     0.15500
H28         H  0.35890190  0.30310917  0.27998543     0.15500
H29         H  0.36781879  0.06981739  0.39850262     0.13800
H30         H  0.39681230  0.06945457  0.35216858     0.13800
H31         H  0.37916621  0.43541747  0.40098421     0.13800
H32         H  0.39793659  0.43692677  0.35312181     0.13800
H33         H  0.36510468  0.25154401  0.39626398     0.27000
H34         H  0.37898243  0.25345270  0.35373622     0.27000
N35         N  0.11400965  0.17408861  0.37800488    -0.35700
N36         N  0.11929623  0.25411890  0.34132555    -0.56300
N37         N  0.11984423  0.32953015  0.38038896    -0.35700
N38         N  0.11359452  0.24945273  0.41700810    -0.56300
C39         C  0.12060864  0.14647475  0.35722402     0.27900
C40         C  0.12519643  0.14495375  0.39767672     0.27900
C41         C  0.11303283  0.35986957  0.36064224     0.27900
C42         C  0.10991039  0.35663890  0.40103222     0.27900
C43         C  0.11734305  0.21411633  0.32577236     0.36500
C44         C  0.12208235  0.29545831  0.32698025     0.36500
C45         C  0.10620171  0.20771460  0.43040989     0.36500
C46         C  0.10345218  0.28859751  0.43203900     0.36500
C47         C  0.13517396  0.09881842  0.36360834    -0.21000
C48         C  0.13913094  0.09810684  0.38906121    -0.21000
C49         C  0.09921569  0.40684165  0.36900560    -0.21000
C50         C  0.09734752  0.40477827  0.39436336    -0.21000
C51         C  0.12112997  0.23000649  0.30151215    -0.22100
C52         C  0.12468364  0.28105781  0.30226882    -0.22100
C53         C  0.08854075  0.22047122  0.45359735    -0.22100
C54         C  0.08777415  0.27154276  0.45483385    -0.22100
C55         C  0.11258113  0.16315250  0.33277619    -0.17400
C56         C  0.12086384  0.15899286  0.42305175    -0.17400
C57         C  0.11023335  0.33935295  0.42585525    -0.17400
C58         C  0.11642605  0.34597452  0.33528061    -0.17400
H59         H  0.14360512  0.06806895  0.35129744     0.15500
H60         H  0.15045832  0.06619537  0.39977708     0.15500
H61         H  0.08989302  0.43915977  0.35811484     0.15500
H62         H  0.08619445  0.43493805  0.40650450     0.15500
H63         H  0.61854864  0.21208445  0.28665187     0.13800
H64         H  0.62018434  0.30986376  0.28857772     0.13800
H65         H  0.07846597  0.19554559  0.46839097     0.13800
H66         H  0.07607856  0.29314337  0.47069531     0.13800
H67         H  0.09812722  0.20925373  0.37856101     0.27000
H68         H  0.13359436  0.29347779  0.38001262     0.27000
O69         O  0.26383841  0.38657492  0.48455655    -0.79300
O70         O  0.26153693  0.09419677  0.53700500    -0.79300
O71         O  0.27016589  0.03701985  0.45301777    -0.79300
O72         O  0.32150670  0.42058190  0.54174455    -0.79200
O73         O  0.28226925  0.07514005  0.48896134    -0.79400
O74         O  0.26172067  0.36798381  0.53377002    -0.79300
O75         O  0.31506546  0.03573287  0.54395677    -0.79300
O76         O  0.31419549  0.45130473  0.48094869    -0.79300
C77         C  0.30366620  0.40571815  0.47696282     1.10400
C78         C  0.30112644  0.08028181  0.54679355     1.10300
C79         C  0.28744307  0.07359166  0.46511965     1.10500
C80         C  0.30355384  0.37726737  0.54305879     1.10300
O81         O  0.17036800  0.41839514  0.53869971    -0.79300
O82         O  0.19872993  0.11977659  0.50124117    -0.79300
O83         O  0.22119450  0.45482050  0.46003162    -0.79300
O84         O  0.21980830  0.03468053  0.56626431    -0.79200
O85         O  0.16786579  0.05231815  0.53599217    -0.79300
O86         O  0.16712445  0.43174990  0.48709768    -0.79300
O87         O  0.22954886  0.42764670  0.56643547    -0.79200
O88         O  0.18696262  0.05410334  0.47695116    -0.79300
Co89       Co  0.21656387  0.40648261  0.51119833     1.51500
Co90       Co  0.22208262  0.05734643  0.51184769     1.51700
Co91       Co  0.24809400  0.00624682  0.48205999     1.51600
Co92       Co  0.26580822  0.98440819  0.55198169     1.51500
O93         O  0.23558364  0.98426115  0.51702478    -1.41200
C94         C  0.18691357  0.41262070  0.56047736     1.10400
C95         C  0.18131848  0.10136597  0.48147695     1.10500
C96         C  0.18060667  0.43518440  0.46481369     1.10400
C97         C  0.18046759  0.05500850  0.55867897     1.10400
N98         N  0.34830109  0.23610599  0.68898300    -0.35700
N99         N  0.35197932  0.15631453  0.65148432    -0.56300
N100        N  0.35087566  0.22872830  0.61214713    -0.35700
N101        N  0.35152496  0.30783399  0.64756623    -0.56300
C102        C  0.36294078  0.19684048  0.70296194     0.27900
C103        C  0.36307097  0.27846542  0.70078649     0.27900
C104        C  0.36673362  0.18698955  0.60065113     0.27900
C105        C  0.36524492  0.26770035  0.59822072     0.27900
C106        C  0.34492060  0.12942870  0.67226165     0.36500
C107        C  0.34340926  0.12532376  0.63196383     0.36500
C108        C  0.34408095  0.33858931  0.66708082     0.36500
C109        C  0.34248713  0.33488666  0.62693705     0.36500
C110        C  0.38494327  0.21464889  0.72449385    -0.21000
C111        C  0.38502568  0.26603203  0.72312320    -0.21000
C112        C  0.39309632  0.19964775  0.57974194    -0.21000
C113        C  0.39176445  0.25077934  0.57808762    -0.21000
C114        C  0.33195578  0.08097374  0.66593369    -0.22100
C115        C  0.33012077  0.07854968  0.64044624    -0.22100
C116        C  0.33008325  0.38535387  0.65885595    -0.22100
C117        C  0.32837200  0.38285525  0.63344214    -0.22100
C118        C  0.35850851  0.14550585  0.69640705    -0.17400
C119        C  0.35833736  0.32785030  0.69163977    -0.17400
C120        C  0.35157376  0.31762228  0.60255655    -0.17400
C121        C  0.35198960  0.13823796  0.60689367    -0.17400
H122        H  0.40038742  0.19288526  0.73941407     0.15500
H123        H  0.40051796  0.29128843  0.73679076     0.15500
H124        H  0.40993893  0.17446513  0.56656617     0.15500
H125        H  0.40780088  0.27292690  0.56356218     0.15500
H126        H  0.32583804  0.05025016  0.67843712     0.13800
H127        H  0.32192584  0.04546273  0.62963231     0.13800
H128        H  0.32330915  0.41825846  0.67005601     0.13800
H129        H  0.31942367  0.41348458  0.62131792     0.13800
H130        H  0.32844206  0.23421366  0.67249841     0.27000
H131        H  0.32552502  0.23007023  0.62649250     0.27000
N132        N  0.15007583  0.23276596  0.61959721    -0.35700
N133        N  0.13526831  0.15809503  0.65784616    -0.56300
N134        N  0.11557067  0.23645321  0.69468883    -0.35700
N135        N  0.13107651  0.31122819  0.65622627    -0.56300
C136        C  0.16575207  0.19146190  0.60736823     0.27900
C137        C  0.16789029  0.27286180  0.60740638     0.27900
C138        C  0.10029706  0.19587911  0.70734393     0.27900
C139        C  0.09650524  0.27715687  0.70615114     0.27900
C140        C  0.14623797  0.12681020  0.63891274     0.36500
C141        C  0.12718885  0.12894861  0.67773505     0.36500
C142        C  0.14388599  0.34064400  0.63711530     0.36500
C143        C  0.11846787  0.34221199  0.67496026     0.36500
C144        C  0.19266409  0.20555829  0.58687477    -0.22800
C145        C  0.19412638  0.25672712  0.58693730    -0.21000
C146        C  0.07332986  0.21119179  0.72770781    -0.21000
C147        C  0.07092966  0.26230749  0.72695307    -0.21000
C148        C  0.14577220  0.07779930  0.64693083    -0.22100
C149        C  0.13414262  0.07917744  0.67147216    -0.22100
C150        C  0.13972155  0.39047658  0.64378509    -0.22100
C151        C  0.12364937  0.39148977  0.66771202    -0.22100
C152        C  0.15895452  0.14126074  0.61468401    -0.17400
C153        C  0.16210358  0.32373881  0.61416758    -0.17400
C154        C  0.09947456  0.32722831  0.69803243    -0.17400
C155        C  0.10775709  0.14526936  0.70060295    -0.17400
H156        H  0.21099982  0.18151446  0.57368966     0.15500
H157        H  0.21337444  0.27941676  0.57365904     0.15500
H158        H  0.05583537  0.18789204  0.74133750     0.15500
H159        H  0.05120099  0.28572029  0.73988995     0.15500
H160        H  0.15314172  0.04433916  0.63625537     0.13800
H161        H  0.13005418  0.04691101  0.68320782     0.13800
H162        H  0.14776218  0.42283023  0.63264414     0.13800
H163        H  0.11667778  0.42486790  0.67851672     0.13800
H164        H  0.12632147  0.23344455  0.63452371     0.27000
H165        H  0.13887983  0.23637351  0.67958792     0.27000
C166        C  0.39381933  0.12542009  0.30905343     0.43300
N167        N  0.44173478  0.09509574  0.28155674     0.02200
C168        C  0.43542256  0.38292181  0.21055648    -0.05600
H169        H  0.46149631  0.33509587  0.29803503     0.07700
C170        C  0.11838711  0.43496395  0.31064632    -0.06000
Co171      Co  0.40827275  0.49938420  0.26020789     0.74200
N172        N  0.44670433  0.40754730  0.28297176    -0.25200
Co173      Co  0.00937399  0.41417045  0.25728334     0.74100
C174        C  0.10169743  0.38354047  0.31617476     0.43400
N175        N  0.07761535  0.06548991  0.28931721     0.01800
N176        N  0.05973280  0.41325356  0.28599439     0.01900
N177        N  0.37436096  0.43755520  0.21750223    -0.46000
H178        H  0.34884813  0.05225608  0.31004272     0.07700
N179        N  0.41199078  0.44106242  0.28647706     0.02200
N180        N  0.07062235  0.42127264  0.23295344     0.02000
C181        C  0.13738524  0.40294151  0.21324548     0.43600
N182        N  0.04373958  0.09902176  0.28398281    -0.24600
C183        C  0.36423847  0.05219767  0.22065977    -0.05600
N184        N  0.43215799  0.13569122  0.29462914    -0.45700
N185        N  0.08999358  0.38839171  0.21709281    -0.46000
C186        C  0.37099453  0.09689688  0.20671072     0.43400
N187        N  0.41134554  0.44517449  0.23281957     0.02200
N188        N  0.05153047  0.08857331  0.23093758    -0.24700
N189        N  0.41249804  0.05714089  0.28647212    -0.25100
N190        N  0.08828205  0.05819752  0.23622575     0.01900
H191        H  0.04787415  0.15356687  0.20749088     0.07800
H192        H  0.17767327  0.47039247  0.22918692     0.07800
N193        N  0.44850470  0.41434522  0.22937456    -0.25200
N194        N  0.08969101  0.45047391  0.29160653    -0.24800
N195        N  0.43680676  0.08266341  0.22839365     0.02200
C196        C  0.39501196  0.37980664  0.31065125     0.43600
C197        C  0.04917501  0.13854229  0.29887537    -0.06100
N198        N  0.10299488  0.45597559  0.23901500    -0.24800
H199        H  0.14951535  0.45496943  0.31816305     0.07800
N200        N  0.37915306  0.42540169  0.30291186    -0.46000
H201        H  0.02728089  0.17210634  0.29831542     0.07800
C202        C  0.11847538  0.10614843  0.20869445     0.43500
C203        C  0.38032931  0.07292928  0.30375516    -0.05600
Co204      Co  0.99210105  0.09187108  0.25563350     0.73800
N205        N  0.10789454  0.08158049  0.30713348    -0.45700
C206        C  0.38570447  0.39913210  0.20270677     0.43700
N207        N  0.41705112  0.11442098  0.21209569    -0.45700
Co208      Co  0.09388704  0.50982901  0.26572203     0.73900
C209        C  0.14498284  0.44790541  0.22734718    -0.06100
C210        C  0.43933973  0.36848412  0.29751981    -0.05600
N211        N  0.40545133  0.04680180  0.23360390    -0.25200
N212        N  0.06521981  0.37392654  0.30022819    -0.45900
H213        H  0.45546025  0.35006872  0.20486073     0.07700
C214        C  0.06744069  0.12089178  0.21372240    -0.06000
Cl215      Cl  0.00476051  0.50542379  0.26037897    -0.49000
C216        C  0.09163511  0.12758835  0.31404267     0.43500
H217        H  0.33180215  0.02941623  0.22241109     0.07700
N218        N  0.12806022  0.06705410  0.22324729    -0.45800
O219        O  0.43777009  0.20452715  0.95241819    -0.79300
O220        O  0.03433124  0.31157840  0.07117602    -0.79300
O221        O  0.40745169  0.28656429  0.03293438    -0.79300
O222        O  0.08613934  0.32977019  0.99056228    -0.79200
O223        O  0.46602754  0.27000633  0.05980351    -0.79400
O224        O  0.01500251  0.33634349  0.97478153    -0.79300
O225        O  0.06374796  0.33962075  0.03540310    -0.79300
O226        O  0.41760837  0.26534786  0.97913713    -0.79300
C227        C  0.41404527  0.24436984  0.95718934     1.10400
C228        C  0.06219617  0.34084585  0.05914793     1.10300
C229        C  0.42783446  0.29380737  0.05391546     1.10500
C230        C  0.05919846  0.34989014  0.97497493     1.10300
O231        O  0.03952818  0.25233498  0.95001255    -0.79300
O232        O  0.48503346  0.17726538  0.07409774    -0.79300
O233        O  0.36416751  0.20271638  0.00699653    -0.79300
O234        O  0.09858870  0.24517517  0.03158985    -0.79200
O235        O  0.03507494  0.21887276  0.05058501    -0.79300
O236        O  0.42790611  0.15839685  0.99500160    -0.79300
O237        O  0.07930502  0.23486735  0.98526337    -0.79200
O238        O  0.42456106  0.18612178  0.04606996    -0.79300
Co239      Co  0.47434574  0.21320005  0.98168863     1.51500
Co240      Co  0.50083303  0.21077942  0.04558093     1.51700
Co241      Co  0.42887862  0.22765998  0.01285986     1.51600
Co242      Co  0.05199021  0.28211338  0.01138315     1.51500
O243        O  0.50265870  0.23865051  0.01368715    -1.41200
C244        C  0.07521745  0.23252403  0.96154024     1.10400
C245        C  0.44133917  0.16970810  0.06718874     1.10500
C246        C  0.38084521  0.16441951  0.99573554     1.10400
C247        C  0.08073603  0.21700120  0.04731476     1.10400
N248        N  0.31002822  0.35753239  0.87815112    -0.35700
N249        N  0.24419653  0.36159238  0.92025012    -0.56300
N250        N  0.16231788  0.38393218  0.88724117    -0.35700
N251        N  0.22933597  0.37955174  0.84451293    -0.56300
C252        C  0.33902239  0.33526159  0.89526072     0.27900
C253        C  0.33337021  0.35482325  0.85615646     0.27900
C254        C  0.14553749  0.40125026  0.90931735     0.27900
C255        C  0.13426978  0.40479504  0.86930797     0.27900
C256        C  0.28325120  0.34124795  0.93181984     0.36500
C257        C  0.20793313  0.36378411  0.93713422     0.36500
C258        C  0.26793464  0.39235890  0.83001639     0.36500
C259        C  0.18832369  0.39726561  0.83324885     0.36500
C260        C  0.38141985  0.31847699  0.88391978    -0.21000
C261        C  0.37765293  0.33037326  0.85929185    -0.21000
C262        C  0.10803389  0.43486498  0.90527184    -0.21000
C263        C  0.10115673  0.43739387  0.88011103    -0.21000
C264        C  0.27157735  0.32999966  0.95608464    -0.22100
C265        C  0.22398427  0.34392147  0.95941566    -0.22100
C266        C  0.25107371  0.42048138  0.81041457    -0.22100
C267        C  0.20158250  0.42218403  0.81194404    -0.22100
C268        C  0.32896341  0.33069372  0.92090734    -0.17400
C269        C  0.31761699  0.37746451  0.83385678    -0.17400
C270        C  0.14018852  0.39799534  0.84343036    -0.17400
C271        C  0.16150247  0.38578365  0.93306681    -0.17400
H272        H  0.41226310  0.29984093  0.89237917     0.15500
H273        H  0.40482127  0.32224845  0.84534574     0.15500
H274        H  0.08845856  0.45641606  0.91903264     0.15500
H275        H  0.07702772  0.46341587  0.87099490     0.15500
H276        H  0.29446941  0.31226960  0.96986529     0.13800
H277        H  0.20377843  0.33893056  0.97635841     0.13800
H278        H  0.27104028  0.44146165  0.79698882     0.13800
H279        H  0.17973838  0.44434756  0.79961331     0.13800
H280        H  0.27867203  0.37817574  0.88156076     0.27000
H281        H  0.18819505  0.35593114  0.88451888     0.27000
N282        N  0.24014311  0.08468965  0.84972782    -0.35700
N283        N  0.31199967  0.09285151  0.89138078    -0.56300
N284        N  0.23988069  0.14110318  0.92004932    -0.35700
N285        N  0.16854298  0.13128468  0.87866194    -0.56300
C286        C  0.27842600  0.05672373  0.84237112     0.27900
C287        C  0.19911026  0.06488333  0.83909590     0.27900
C288        C  0.27903569  0.14706177  0.93542299     0.27900
C289        C  0.20847414  0.17875705  0.92510223     0.27900
C290        C  0.34220074  0.07524453  0.87354962     0.36500
C291        C  0.33773477  0.09367434  0.91298006     0.36500
C292        C  0.13952303  0.12056417  0.85909473     0.36500
C293        C  0.14477312  0.16586734  0.89192413     0.36500
C294        C  0.26195809  0.01812402  0.82730228    -0.21000
C295        C  0.21191378  0.02298047  0.82536659    -0.21000
C296        C  0.27198317  0.18904142  0.95018186    -0.21000
C297        C  0.22738521  0.20828902  0.94398145    -0.21000
C298        C  0.38724864  0.06390224  0.88407908    -0.22100
C299        C  0.38396936  0.07427369  0.90894853    -0.22100
C300        C  0.09690223  0.14835396  0.85995841    -0.22100
C301        C  0.10008490  0.17699734  0.88090690    -0.22100
C302        C  0.32799427  0.06602281  0.84851091    -0.17400
C303        C  0.15100763  0.08495567  0.84095294    -0.17400
C304        C  0.16258021  0.18786380  0.91374343    -0.17400
C305        C  0.32244878  0.11787913  0.93523290    -0.17400
H306        H  0.28371991  0.98887901  0.81898024     0.15500
H307        H  0.18796549  0.99790703  0.81525231     0.15500
H308        H  0.29710917  0.20637010  0.96313031     0.15500
H309        H  0.21115679  0.24131901  0.95203637     0.15500
H310        H  0.41893957  0.04729078  0.87560871     0.13800
H311        H  0.41322904  0.06901703  0.92221104     0.13800
H312        H  0.06702418  0.14883013  0.84675602     0.13800
H313        H  0.07275398  0.20340648  0.88708092     0.13800
H314        H  0.24378032  0.11842861  0.85924272     0.27000
H315        H  0.23326604  0.11110050  0.90816860     0.27000
C316        C  0.38106808  0.36977319  0.70568524     0.43300
N317        N  0.39047148  0.43484327  0.72869378     0.02200
C318        C  0.10522845  0.07789033  0.73612456    -0.05600
H319        H  0.12412525  0.38045069  0.74728029     0.07700
C320        C  0.04480831  0.41407268  0.83153245    -0.06000
Co321      Co  0.47956844  0.49173104  0.71428496     0.74200
N322        N  0.06437692  0.43034377  0.73862395    -0.25200
Co323      Co  0.06422572  0.48608264  0.76565197     0.74100
C324        C  0.09637867  0.40181257  0.82607275     0.43400
N325        N  0.41630246  0.43467155  0.80272964     0.01800
N326        N  0.06104406  0.43368285  0.79381741     0.01900
N327        N  0.04573307  0.08017287  0.70704360    -0.46000
H328        H  0.44647829  0.39045246  0.68148749     0.07700
N329        N  0.03250987  0.43146322  0.72026110     0.02200
N330        N  0.07715021  0.03106679  0.79292349     0.02000
C331        C  0.11099178  0.06860514  0.82376407     0.43600
N332        N  0.38590096  0.43338019  0.78369534    -0.24600
C333        C  0.42825939  0.08304844  0.70410584    -0.05600
N334        N  0.36191146  0.39513771  0.72514661    -0.45700
N335        N  0.11802784  0.05312736  0.80035173    -0.46000
C336        C  0.38407227  0.10791046  0.71206330     0.43400
N337        N  0.04223506  0.03990334  0.72081496     0.02200
N338        N  0.39531645  0.03477529  0.79208671    -0.24700
N339        N  0.42629343  0.43695427  0.71252063    -0.25100
N340        N  0.42842005  0.03043603  0.81000340     0.01900
H341        H  0.32024166  0.05742087  0.79230628     0.07800
H342        H  0.04453327  0.05287295  0.84845292     0.07800
N343        N  0.07626194  0.03750331  0.73811757    -0.25200
N344        N  0.02659717  0.43527513  0.81084623    -0.24800
N345        N  0.39774000  0.04453050  0.73557642     0.02200
C346        C  0.07511477  0.36608383  0.71309479     0.43600
C347        C  0.34970034  0.40148822  0.78884281    -0.06100
N348        N  0.04283209  0.03057276  0.81007289    -0.24800
H349        H  0.02640305  0.41444005  0.84916657     0.07800
N350        N  0.03790580  0.39402322  0.70447530    -0.46000
H351        H  0.31945522  0.39309382  0.77652692     0.07800
C352        C  0.36521976  0.06161680  0.82827757     0.43500
C353        C  0.42281124  0.39805168  0.69702634    -0.05600
Co354      Co  0.38650310  0.48937800  0.75684535     0.73800
N355        N  0.39988986  0.40863542  0.82167911    -0.45700
C356        C  0.08398035  0.10663823  0.71577005     0.43700
N357        N  0.36604388  0.08148379  0.73143895    -0.45700
Co358      Co  0.47221989  0.48735708  0.80486285     0.73900
C359        C  0.06088657  0.05390446  0.83027634    -0.06100
C360        C  0.09339468  0.39034371  0.73562234    -0.05600
N361        N  0.43384390  0.04487392  0.71953406    -0.25200
N362        N  0.10142880  0.41231872  0.80191565    -0.45900
H363        H  0.13669844  0.08635273  0.74762289     0.07700
C364        C  0.35523922  0.05609624  0.80168454    -0.06000
Cl365      Cl  0.47583655  0.48979965  0.75953829    -0.49000
C366        C  0.35658724  0.38793318  0.81492604     0.43500
H367        H  0.45069829  0.09057395  0.68814126     0.07700
N368        N  0.41162355  0.04614420  0.83162665    -0.45800
N369        N  0.24367505  0.12382740  0.18235104    -0.35700
N370        N  0.31721655  0.13062651  0.14484081    -0.56300
N371        N  0.23789688  0.14944646  0.10848763    -0.35700
N372        N  0.16604665  0.15077347  0.14736461    -0.56300
C373        C  0.28498308  0.12543284  0.19664628     0.27900
C374        C  0.20442483  0.12860910  0.19744341     0.27900
C375        C  0.27965397  0.16065581  0.09657790     0.27900
C376        C  0.20194372  0.17747667  0.09835014     0.27900
C377        C  0.34391472  0.10965312  0.16308845     0.36500
C378        C  0.33682927  0.11486968  0.12334053     0.36500
C379        C  0.13792008  0.13223789  0.16557265     0.36500
C380        C  0.13689380  0.15410483  0.12715109     0.36500
C381        C  0.27147369  0.13190701  0.22116905    -0.21000
C382        C  0.22092859  0.13361834  0.22168587    -0.21000
C383        C  0.27056898  0.19698896  0.07897917    -0.21000
C384        C  0.22142481  0.20778366  0.08020523    -0.21000
C385        C  0.38074406  0.08031421  0.15323691    -0.22100
C386        C  0.37553732  0.08271127  0.12795194    -0.22100
C387        C  0.09076464  0.12379631  0.15674183    -0.22100
C388        C  0.09000816  0.13843219  0.13249707    -0.22100
C389        C  0.33377447  0.11529646  0.18843319    -0.17400
C390        C  0.15422011  0.12432232  0.19010860    -0.17400
C391        C  0.15181714  0.17328501  0.10428077    -0.17400
C392        C  0.32458371  0.13602556  0.10027652    -0.17400
H393        H  0.29549036  0.13359817  0.23715432     0.15500
H394        H  0.19878462  0.13746313  0.23813333     0.15500
H395        H  0.29653113  0.21394531  0.06654170     0.15500
H396        H  0.20224637  0.23444220  0.06881614     0.15500
H397        H  0.40756045  0.05841547  0.16318337     0.13800
H398        H  0.39852295  0.06412300  0.11450201     0.13800
H399        H  0.05991966  0.10818590  0.16637183     0.13800
H400        H  0.05882197  0.13668766  0.12008259     0.13800
H401        H  0.24150356  0.11334030  0.16383387     0.27000
H402        H  0.23346750  0.12003849  0.12079793     0.27000
N403        N  0.24675000  0.37888939  0.10542383    -0.35700
N404        N  0.32832830  0.36699687  0.14018522    -0.56300
N405        N  0.25827479  0.38193328  0.18103913    -0.35700
N406        N  0.17818179  0.38663969  0.14774836    -0.56300
C407        C  0.28149065  0.35867881  0.09066052     0.27900
C408        C  0.20284248  0.36746186  0.09515276     0.27900
C409        C  0.30027827  0.37230741  0.19357552     0.27900
C410        C  0.22024199  0.37780268  0.19715994     0.27900
C411        C  0.35274931  0.37248609  0.11851744     0.36500
C412        C  0.36003169  0.37908561  0.15873595     0.36500
C413        C  0.14986834  0.39973642  0.12858253     0.36500
C414        C  0.15324024  0.39923770  0.16822603     0.36500
C415        C  0.25927512  0.33528042  0.07050660    -0.21000
C416        C  0.20975360  0.34074370  0.07337281    -0.21000
C417        C  0.28880294  0.36169717  0.21799765    -0.21000
C418        C  0.23857137  0.36491201  0.22020161    -0.21000
C419        C  0.40026237  0.38780643  0.12343243    -0.22100
C420        C  0.40489186  0.39185104  0.14879863    -0.22100
C421        C  0.10650155  0.42078806  0.13676802    -0.22100
C422        C  0.10877231  0.42083972  0.16206921    -0.22100
C423        C  0.33265575  0.36190303  0.09456996    -0.17400
C424        C  0.15673595  0.38061029  0.10492882    -0.17400
C425        C  0.17014600  0.38987844  0.19223740    -0.17400
C426        C  0.34880084  0.37936493  0.18444604    -0.17400
H427        H  0.27660031  0.31505461  0.05553710     0.15500
H428        H  0.18213573  0.32606364  0.06088358     0.15500
H429        H  0.31423055  0.35371131  0.23288261     0.15500
H430        H  0.21800140  0.35983728  0.23705794     0.15500
H431        H  0.42849822  0.39621694  0.11015048     0.13800
H432        H  0.43747953  0.40351482  0.15871026     0.13800
H433        H  0.07558400  0.43240079  0.12560036     0.13800
H434        H  0.08054897  0.43435964  0.17434687     0.13800
H435        H  0.25265626  0.40178748  0.12081817     0.27000
H436        H  0.25712053  0.39754686  0.16351892     0.27000
C437        C  0.11370112  0.18702962  0.06272464    -0.15600
C438        C  0.11297213  0.19270263  0.08741849    -0.30700
H439        H  0.14410833  0.16808207  0.05388419     0.13500
H440        H  0.08277014  0.21300992  0.09577876     0.14000
C441        C  0.40829880  0.14855176  0.08529939    -0.15600
C442        C  0.36128370  0.13904592  0.08021902    -0.30700
H443        H  0.42156538  0.14914168  0.10425859     0.13500
H444        H  0.34832195  0.14159924  0.06120397     0.14000
C445        C  0.09621540  0.37367935  0.07181525    -0.15600
C446        C  0.11263845  0.35957700  0.09374035    -0.30700
H447        H  0.11474721  0.40287532  0.06161555     0.13500
H448        H  0.09507880  0.32938844  0.10370737     0.14000
C449        C  0.36438642  0.35024353  0.07244982    -0.15600
C450        C  0.40557648  0.32344331  0.07425847    -0.30700
H451        H  0.34973620  0.35679536  0.05402821     0.13500
H452        H  0.41982603  0.31507839  0.09254809     0.14000
C453        C  0.08091517  0.37782054  0.95427038    -0.15600
C454        C  0.12845794  0.39123078  0.95504004    -0.30700
H455        H  0.06221797  0.37389608  0.93659486     0.13500
H456        H  0.14538545  0.39518937  0.97317213     0.14000
C457        C  0.38358329  0.26570206  0.93739929    -0.15600
C458        C  0.36786551  0.31286710  0.93803557    -0.30700
H459        H  0.37219284  0.24122537  0.92229572     0.13500
H460        H  0.37804726  0.33682585  0.95354721     0.14000
C461        C  0.12837589  0.22023943  0.92687463    -0.15600
C462        C  0.11153456  0.20451696  0.94841209    -0.30700
H463        H  0.11386871  0.25349860  0.91806894     0.13500
H464        H  0.12663160  0.17142424  0.95714003     0.14000
C465        C  0.35882998  0.12296300  0.95641398    -0.15600
C466        C  0.34720187  0.13330428  0.98029554    -0.30700
H467        H  0.39711403  0.12435561  0.95160388     0.13500
H468        H  0.30923278  0.13141276  0.98596073     0.14000
C469        C  0.32472463  0.11500335  0.56435377    -0.15600
C470        C  0.34347165  0.10082011  0.58641920    -0.30700
H471        H  0.31656976  0.15411458  0.56131716     0.13500
H472        H  0.34640556  0.06128764  0.59030108     0.14000
C473        C  0.32512327  0.33960059  0.55972904    -0.15600
C474        C  0.34700697  0.35296069  0.58126438    -0.30700
H475        H  0.31313211  0.30126808  0.55713858     0.13500
H476        H  0.35478690  0.39216300  0.58455836     0.14000
C477        C  0.17629654  0.10105786  0.59785276    -0.15600
C478        C  0.15499462  0.08922590  0.57595699    -0.30700
H479        H  0.20898335  0.08147214  0.60391705     0.13500
H480        H  0.12240009  0.10884906  0.56985695     0.14000
C481        C  0.18394020  0.36172947  0.59780174    -0.15600
C482        C  0.16009141  0.38138043  0.57827570    -0.30700
H483        H  0.22185002  0.37148675  0.60157165     0.13500
H484        H  0.12273104  0.37015123  0.57416327     0.14000
C485        C  0.13465356  0.12160642  0.44264727    -0.15600
C486        C  0.15863698  0.13555762  0.46347023    -0.30700
H487        H  0.12893051  0.08212545  0.43917644     0.13500
H488        H  0.16681508  0.17470034  0.46661214     0.14000
C489        C  0.11997556  0.37581486  0.44657991    -0.15600
C490        C  0.15446596  0.41111637  0.44402494    -0.30700
H491        H  0.10653481  0.36851466  0.46503263     0.13500
H492        H  0.17114018  0.41633695  0.42602210     0.14000
C493        C  0.31105196  0.11508768  0.45191972    -0.15600
C494        C  0.30239562  0.12109653  0.42759444    -0.30700
H495        H  0.33232217  0.14252000  0.46223493     0.13500
H496        H  0.28103712  0.09323520  0.41755901     0.14000
C497        C  0.33262678  0.37560382  0.45966656    -0.15600
C498        C  0.32581448  0.38264707  0.43525333    -0.30700
H499        H  0.34799881  0.34073015  0.46620792     0.13500
H500        H  0.30876713  0.41706436  0.42906529     0.14000
N501        N  0.33158420  0.75321693  0.40974111    -0.35700
N502        N  0.34320409  0.67641540  0.37091960    -0.56300
N503        N  0.36709652  0.75404498  0.33623623    -0.35700
N504        N  0.34797093  0.83162922  0.37295116    -0.56300
C505        C  0.31168637  0.71247314  0.42053752     0.27900
C506        C  0.31368945  0.79401460  0.42161080     0.27900
C507        C  0.36377168  0.71385405  0.32084154     0.27900
C508        C  0.36806024  0.79548652  0.32197536     0.27900
C509        C  0.34142972  0.64749289  0.39121611     0.36500
C510        C  0.36039034  0.64704316  0.35247036     0.36500
C511        C  0.34641115  0.85982769  0.39383425     0.36500
C512        C  0.36814239  0.86049564  0.35520939     0.36500
C513        C  0.28104175  0.72745322  0.43949393    -0.21000
C514        C  0.28197268  0.77877692  0.44007421    -0.21000
C515        C  0.36175445  0.73020662  0.29653601    -0.21000
C516        C  0.36455517  0.78150880  0.29725181    -0.21000
C517        C  0.35698840  0.59953978  0.38561135    -0.22100
C518        C  0.36948168  0.59936302  0.36111740    -0.22100
C519        C  0.36465565  0.90708160  0.38917299    -0.22100
C520        C  0.37877584  0.90737982  0.36478677    -0.22100
C521        C  0.32132071  0.66212811  0.41405429    -0.17400
C522        C  0.32641677  0.84445536  0.41669471    -0.17400
C523        C  0.37680243  0.84508561  0.33048196    -0.17400
C524        C  0.36730531  0.66283859  0.32792556    -0.17400
H525        H  0.25991684  0.70387951  0.45155878     0.15500
H526        H  0.26111986  0.80205746  0.45258383     0.15500
H527        H  0.35950508  0.70744577  0.27993055     0.15500
H528        H  0.36484532  0.80578879  0.28132718     0.15500
H529        H  0.35901093  0.56790152  0.39791433     0.13800
H530        H  0.38375969  0.56760258  0.35108545     0.13800
H531        H  0.36788213  0.93802204  0.40206751     0.13800
H532        H  0.39498670  0.93861136  0.35526991     0.13800
H533        H  0.35909114  0.75299533  0.39653194     0.27000
H534        H  0.37545792  0.75306715  0.35498817     0.27000
N535        N  0.12006898  0.67524780  0.38148355    -0.35700
N536        N  0.11752134  0.75564976  0.34411587    -0.56300
N537        N  0.11364364  0.83066380  0.38251514    -0.35700
N538        N  0.11570063  0.75032145  0.42032947    -0.56300
C539        C  0.12234785  0.64699295  0.36065983     0.27900
C540        C  0.12875315  0.64515224  0.40113433     0.27900
C541        C  0.10307834  0.85968321  0.36259413     0.27900
C542        C  0.10013951  0.85636223  0.40305567     0.27900
C543        C  0.12068911  0.71521997  0.32899415     0.36500
C544        C  0.11960359  0.79662957  0.32950351     0.36500
C545        C  0.11706398  0.70907284  0.43475499     0.36500
C546        C  0.10785342  0.78990967  0.43550547     0.36500
C547        C  0.13160534  0.59794806  0.36704434    -0.21000
C548        C  0.13669510  0.59691743  0.39241222    -0.21000
C549        C  0.08310174  0.90434904  0.37070974    -0.21000
C550        C  0.08128371  0.90225921  0.39612005    -0.21000
C551        C  0.12667115  0.73073566  0.30475640    -0.22100
C552        C  0.12630329  0.78194116  0.30508889    -0.22100
C553        C  0.10747726  0.72258581  0.45905784    -0.22100
C554        C  0.10294041  0.77341582  0.45966645    -0.22100
C555        C  0.11593606  0.66429635  0.33611888    -0.17400
C556        C  0.12878614  0.65965083  0.42662438    -0.17400
C557        C  0.10517834  0.84068042  0.42809326    -0.17400
C558        C  0.10951496  0.84655320  0.33726581    -0.17400
H559        H  0.13588375  0.56619107  0.35481200     0.15500
H560        H  0.14492611  0.56385359  0.40297079     0.15500
H561        H  0.07029631  0.93506416  0.35953381     0.15500
H562        H  0.06689755  0.93107915  0.40817429     0.15500
H563        H  0.62583047  0.70594805  0.29031946     0.13800
H564        H  0.63080330  0.80405797  0.28997687     0.13800
H565        H  0.10383011  0.69848223  0.47491046     0.13800
H566        H  0.09548202  0.79490239  0.47620321     0.13800
H567        H  0.10986154  0.71234721  0.38200360     0.27000
H568        H  0.13285375  0.79724880  0.38243173     0.27000
O569        O  0.25245724  0.89411704  0.48413561    -0.79300
O570        O  0.27651763  0.58401863  0.53781429    -0.79300
O571        O  0.28163597  0.53071081  0.45324422    -0.79300
O572        O  0.31176320  0.93212984  0.54180861    -0.79200
O573        O  0.29572617  0.56689517  0.48937856    -0.79400
O574        O  0.25358537  0.87756089  0.53341452    -0.79300
O575        O  0.32826405  0.52323352  0.54145161    -0.79300
O576        O  0.30322054  0.95824136  0.48067889    -0.79300
C577        C  0.29236643  0.91280356  0.47644318     1.10400
C578        C  0.31681946  0.56772903  0.54599724     1.10300
C579        C  0.29900759  0.56704219  0.46547740     1.10500
C580        C  0.29507396  0.88825521  0.54281207     1.10300
O581        O  0.16059080  0.92545032  0.53915368    -0.79300
O582        O  0.21348008  0.61289062  0.50208169    -0.79300
O583        O  0.20926772  0.96176533  0.46019716    -0.79300
O584        O  0.23255880  0.52751971  0.56595419    -0.79200
O585        O  0.18070450  0.54409890  0.53556873    -0.79300
O586        O  0.15576228  0.93897549  0.48762586    -0.79300
O587        O  0.22004087  0.93422431  0.56660877    -0.79200
O588        O  0.19870719  0.54841900  0.47740682    -0.79300
Co589      Co  0.20630199  0.91438786  0.51131612     1.51500
Co590      Co  0.23544229  0.54954479  0.51208140     1.51700
Co591      Co  0.25933774  0.49927846  0.48218205     1.51600
Co592      Co  0.27736533  0.47514454  0.55143883     1.51500
O593        O  0.24673166  0.47586191  0.51686754    -1.41200
C594        C  0.17794223  0.91795170  0.56060016     1.10400
C595        C  0.19457778  0.59578296  0.48237209     1.10500
C596        C  0.16868552  0.94234406  0.46524165     1.10400
C597        C  0.19274083  0.54703459  0.55824037     1.10400
N598        N  0.34816826  0.74213138  0.68652327    -0.35700
N599        N  0.34465350  0.66505475  0.64780505    -0.56300
N600        N  0.34550995  0.73940494  0.60987443    -0.35700
N601        N  0.35203460  0.81650109  0.64644928    -0.56300
C602        C  0.36317495  0.70108017  0.69906742     0.27900
C603        C  0.36648474  0.78276030  0.69853731     0.27900
C604        C  0.35538323  0.69766619  0.59674283     0.27900
C605        C  0.35927585  0.77847616  0.59596617     0.27900
C606        C  0.33651281  0.63760232  0.66823151     0.36500
C607        C  0.33064779  0.63679743  0.62815167     0.36500
C608        C  0.34644750  0.84609633  0.66660829     0.36500
C609        C  0.34169275  0.84481727  0.62637426     0.36500
C610        C  0.38979315  0.71596500  0.71977841    -0.21000
C611        C  0.39180694  0.76741674  0.71946951    -0.21000
C612        C  0.37653009  0.71023010  0.57437076    -0.21000
C613        C  0.37984344  0.76136808  0.57409302    -0.21000
C614        C  0.31784768  0.59130662  0.66153803    -0.22100
C615        C  0.31334103  0.59108297  0.63611141    -0.22100
C616        C  0.33247486  0.89350973  0.65935675    -0.22100
C617        C  0.32870581  0.89254408  0.63391934    -0.22100
C618        C  0.35394630  0.65068706  0.69206382    -0.17400
C619        C  0.36143078  0.83311533  0.69085515    -0.17400
C620        C  0.34777478  0.82859767  0.60148276    -0.17400
C621        C  0.33847947  0.65006702  0.60320607    -0.17400
H622        H  0.40672232  0.69221671  0.73349078     0.15500
H623        H  0.41069271  0.79077430  0.73287177     0.15500
H624        H  0.38750716  0.68559049  0.55949878     0.15500
H625        H  0.39389625  0.78348445  0.55903747     0.15500
H626        H  0.30974750  0.56051514  0.67370013     0.13800
H627        H  0.30127418  0.55995902  0.62475145     0.13800
H628        H  0.32669932  0.92571437  0.67118925     0.13800
H629        H  0.31893765  0.92393179  0.62244830     0.13800
H630        H  0.32516707  0.74257761  0.67107897     0.27000
H631        H  0.32307006  0.74130922  0.62538170     0.27000
N632        N  0.15131042  0.72537832  0.61656777    -0.35700
N633        N  0.13536878  0.65234565  0.65544445    -0.56300
N634        N  0.11250650  0.73246494  0.69087418    -0.35700
N635        N  0.12861122  0.80571516  0.65180449    -0.56300
C636        C  0.16830960  0.68376472  0.60499264     0.27900
C637        C  0.16727837  0.76532624  0.60359420     0.27900
C638        C  0.09560967  0.69252737  0.70347010     0.27900
C639        C  0.09349458  0.77372868  0.70182145     0.27900
C640        C  0.14875981  0.62028410  0.63727841     0.36500
C641        C  0.12504901  0.62414451  0.67537738     0.36500
C642        C  0.14237472  0.83436052  0.63255463     0.36500
C643        C  0.11811778  0.83741005  0.67062241     0.36500
C644        C  0.19402614  0.69755375  0.58405516    -0.22800
C645        C  0.19337701  0.74871577  0.58317638    -0.21000
C646        C  0.06708753  0.70878468  0.72310784    -0.21000
C647        C  0.06582887  0.75989311  0.72209211    -0.21000
C648        C  0.14748110  0.57164797  0.64584126    -0.22100
C649        C  0.13273894  0.57411338  0.66993728    -0.22100
C650        C  0.14073426  0.88437961  0.63926370    -0.22100
C651        C  0.12548911  0.88629017  0.66331198    -0.22100
C652        C  0.16359791  0.63371122  0.61322494    -0.17400
C653        C  0.16018933  0.81652081  0.60961877    -0.17400
C654        C  0.09915022  0.82356815  0.69386478    -0.17400
C655        C  0.10360467  0.64167995  0.69751982    -0.17400
H656        H  0.21273862  0.67347044  0.57105106     0.15500
H657        H  0.21122259  0.77112662  0.56929775     0.15500
H658        H  0.04814044  0.68614695  0.73651456     0.15500
H659        H  0.04563984  0.78401694  0.73451689     0.15500
H660        H  0.15601895  0.53771266  0.63578421     0.13800
H661        H  0.12722386  0.54242795  0.68191118     0.13800
H662        H  0.15047437  0.91633122  0.62820148     0.13800
H663        H  0.12062043  0.91998770  0.67417610     0.13800
H664        H  0.12805281  0.72634585  0.63167061     0.27000
H665        H  0.13737876  0.73175734  0.67641686     0.27000
C666        C  0.38636310  0.62658001  0.30930152     0.43300
N667        N  0.43620737  0.59705797  0.28259804     0.02200
C668        C  0.43518299  0.87580102  0.21358502    -0.05600
H669        H  0.46748211  0.83263760  0.30008655     0.07700
C670        C  0.11073194  0.93373479  0.31088466    -0.06000
Co671      Co  0.41304511  0.99589897  0.26140519     0.74200
N672        N  0.45366527  0.90480190  0.28428782    -0.25200
Co673      Co  0.00273455  0.90947403  0.25722658     0.74100
C674        C  0.09387592  0.88289179  0.31757783     0.43400
N675        N  0.08418635  0.56883248  0.29115205     0.01800
N676        N  0.05371568  0.90921123  0.28585431     0.01900
N677        N  0.37633403  0.93303868  0.22019821    -0.46000
H678        H  0.33970591  0.55441322  0.30788047     0.07700
N679        N  0.41957147  0.93896949  0.28797528     0.02200
N680        N  0.06308973  0.91467921  0.23251275     0.02000
C681        C  0.12878752  0.89524655  0.21210189     0.43600
N682        N  0.05062517  0.60254609  0.28570680    -0.24600
C683        C  0.36986473  0.55521870  0.21581563    -0.05600
N684        N  0.42637024  0.63677439  0.29617469    -0.45700
N685        N  0.08226646  0.88010190  0.21745618    -0.46000
C686        C  0.38064909  0.59908412  0.20164072     0.43400
N687        N  0.41468682  0.94127436  0.23440874     0.02200
N688        N  0.06090381  0.59369169  0.23238442    -0.24700
N689        N  0.40565763  0.55950612  0.28594310    -0.25100
N690        N  0.09739162  0.56322322  0.23802802     0.01900
H691        H  0.05762480  0.65608076  0.20713738     0.07800
H692        H  0.16857897  0.96535472  0.22582548     0.07800
N693        N  0.45091451  0.90943462  0.23076049    -0.25200
N694        N  0.08329090  0.94703420  0.29091898    -0.24800
N695        N  0.43813295  0.58780505  0.22909727     0.02200
C696        C  0.40271404  0.87965496  0.31335939     0.43600
C697        C  0.05464340  0.64102348  0.30129353    -0.06100
N698        N  0.09496979  0.95057829  0.23731286    -0.24800
H699        H  0.14082842  0.95502171  0.31861041     0.07800
N700        N  0.38729366  0.92474789  0.30495871    -0.46000
H701        H  0.03252414  0.67444409  0.30090092     0.07800
C702        C  0.12825961  0.60846648  0.20931186     0.43500
C703        C  0.37211227  0.57484807  0.30267311    -0.05600
Co704      Co  0.00011762  0.59666985  0.25697331     0.73800
N705        N  0.11319047  0.58390665  0.30968447    -0.45700
C706        C  0.38499308  0.89200874  0.20677536     0.43700
N707        N  0.42333680  0.61855907  0.21107033    -0.45700
Co708      Co  0.08645722  0.00544299  0.26415545     0.73900
C709        C  0.13608174  0.94240700  0.22477172    -0.06100
C710        C  0.44632822  0.86669717  0.29961837    -0.05600
N711        N  0.40601146  0.55159453  0.23232306    -0.25200
N712        N  0.05862804  0.87133117  0.30115974    -0.45900
H713        H  0.45355693  0.84129127  0.20897899     0.07700
C714        C  0.07724636  0.62432775  0.21440177    -0.06000
Cl715      Cl  0.99742021  0.00088249  0.25966808    -0.49000
C716        C  0.09594468  0.62922239  0.31702950     0.43500
H717        H  0.33748603  0.53205333  0.21520326     0.07700
N718        N  0.13715185  0.57042363  0.22468394    -0.45800
O719        O  0.45970953  0.80766963  0.94982752    -0.79300
O720        O  0.04458984  0.80874674  0.07090931    -0.79300
O721        O  0.38592218  0.80302106  0.03153914    -0.79300
O722        O  0.08581643  0.78600213  0.98852289    -0.79200
O723        O  0.43983772  0.86072864  0.03977945    -0.79400
O724        O  0.03228873  0.84681113  0.98510389    -0.79300
O725        O  0.08119514  0.80174762  0.03464612    -0.79300
O726        O  0.41277161  0.82130164  0.98283524    -0.79300
C727        C  0.42300231  0.82830030  0.95947069     1.10400
C728        C  0.08096406  0.81720976  0.05730706     1.10300
C729        C  0.39643597  0.84467617  0.04108966     1.10500
C730        C  0.07521378  0.82989563  0.98173021     1.10300
O731        O  0.02447610  0.75410162  0.95839643    -0.79300
O732        O  0.44278126  0.76624548  0.06492236    -0.79300
O733        O  0.36826579  0.73461735  0.99647991    -0.79300
O734        O  0.10362648  0.70906197  0.02250055    -0.79200
O735        O  0.04201043  0.71709045  0.04954471    -0.79300
O736        O  0.43581223  0.72592710  0.97429813    -0.79300
O737        O  0.03264671  0.69493843  0.98646910    -0.79200
O738        O  0.42950336  0.70988533  0.03520392    -0.79300
Co739      Co  0.48208502  0.78840155  0.98081295     1.51500
Co740      Co  0.49130965  0.81361021  0.05082639     1.51700
Co741      Co  0.42675604  0.76238561  0.00891854     1.51600
Co742      Co  0.04851241  0.74525439  0.01253761     1.51500
O743        O  0.49618924  0.77915497  0.01692934    -1.41200
C744        C  0.03902423  0.71066058  0.96450592     1.10400
C745        C  0.42839977  0.72325434  0.05799238     1.10500
C746        C  0.38990314  0.71617245  0.97796042     1.10400
C747        C  0.08463442  0.69879615  0.04336404     1.10400
N748        N  0.30747285  0.89975313  0.88752400    -0.35700
N749        N  0.23308579  0.91268399  0.92629415    -0.56300
N750        N  0.15792912  0.89593489  0.88895968    -0.35700
N751        N  0.23293096  0.89327358  0.85007707    -0.56300
C752        C  0.33327016  0.91690411  0.90727943     0.27900
C753        C  0.33390858  0.90980016  0.86688959     0.27900
C754        C  0.13272233  0.91445354  0.90853124     0.27900
C755        C  0.13288826  0.90841308  0.86815583     0.27900
C756        C  0.27308920  0.91067471  0.94102997     0.36500
C757        C  0.19429750  0.91000284  0.94161669     0.36500
C758        C  0.27249013  0.87900780  0.83671150     0.36500
C759        C  0.19270680  0.87742133  0.83752325     0.36500
C760        C  0.37617050  0.93855515  0.89942111    -0.21000
C761        C  0.37618601  0.93526746  0.87399801    -0.21000
C762        C  0.09203970  0.93992297  0.90031061    -0.21000
C763        C  0.09310295  0.93779452  0.87484616    -0.21000
C764        C  0.25968708  0.90974580  0.96573477    -0.22100
C765        C  0.20980105  0.91060311  0.96609726    -0.22100
C766        C  0.25720330  0.85295291  0.81579368    -0.22100
C767        C  0.20681476  0.85215244  0.81624263    -0.22100
C768        C  0.32143743  0.90911515  0.93241119    -0.17400
C769        C  0.32150936  0.89328545  0.84239377    -0.17400
C770        C  0.14394397  0.89058800  0.84385849    -0.17400
C771        C  0.14509052  0.90746934  0.93362776    -0.17400
H772        H  0.40432068  0.95543238  0.91090290     0.15500
H773        H  0.40436137  0.95102645  0.86258326     0.15500
H774        H  0.06566090  0.95991930  0.91145983     0.15500
H775        H  0.06809259  0.95756681  0.86291666     0.15500
H776        H  0.28288452  0.90936755  0.98199474     0.13800
H777        H  0.18771040  0.91166877  0.98263981     0.13800
H778        H  0.27983794  0.83637054  0.80159145     0.13800
H779        H  0.18333039  0.83522746  0.80234694     0.13800
H780        H  0.27668524  0.87697415  0.88855633     0.27000
H781        H  0.18754154  0.87149364  0.88997154     0.27000
N782        N  0.22756325  0.61619383  0.84192567    -0.35700
N783        N  0.30524736  0.64189099  0.87762919    -0.56300
N784        N  0.22994063  0.67147063  0.91328378    -0.35700
N785        N  0.15271947  0.64547969  0.87754523    -0.56300
C786        C  0.26724372  0.59150963  0.83281744     0.27900
C787        C  0.18667391  0.59228907  0.83330035     0.27900
C788        C  0.27033228  0.68623782  0.92612134     0.27900
C789        C  0.19025942  0.68922376  0.92552768     0.27900
C790        C  0.33367754  0.63092066  0.85784265     0.36500
C791        C  0.33491686  0.66202269  0.89523278     0.36500
C792        C  0.12428304  0.63821111  0.85733284     0.36500
C793        C  0.12528895  0.67127364  0.89386226     0.36500
C794        C  0.25117608  0.55116607  0.81891850    -0.21000
C795        C  0.20098218  0.55180012  0.81911401    -0.21000
C796        C  0.25562245  0.71319816  0.94688607    -0.21000
C797        C  0.20553503  0.71444948  0.94666654    -0.21000
C798        C  0.38158761  0.64492497  0.86281561    -0.22100
C799        C  0.38250390  0.66376198  0.88650614    -0.22100
C800        C  0.07920678  0.66083448  0.86050632    -0.22100
C801        C  0.07960315  0.68125788  0.88378557    -0.22100
C802        C  0.31758842  0.60448283  0.83639880    -0.17400
C803        C  0.13688394  0.60670852  0.83746503    -0.17400
C804        C  0.14069883  0.68696008  0.91759117    -0.17400
C805        C  0.32014961  0.67944555  0.91898407    -0.17400
H806        H  0.27328814  0.52298897  0.81014572     0.15500
H807        H  0.17788222  0.52448136  0.81028693     0.15500
H808        H  0.27822144  0.73250645  0.96035161     0.15500
H809        H  0.18307436  0.73406531  0.95999742     0.15500
H810        H  0.41303792  0.64175234  0.85088466     0.13800
H811        H  0.41474371  0.67761644  0.89601083     0.13800
H812        H  0.04900156  0.66243227  0.84752409     0.13800
H813        H  0.04985476  0.70182657  0.89216268     0.13800
H814        H  0.22839518  0.64993037  0.85164203     0.27000
H815        H  0.22940857  0.64974427  0.89736310     0.27000
C816        C  0.38452413  0.87348842  0.70599121     0.43300
N817        N  0.39732039  0.93336833  0.73204474     0.02200
C818        C  0.09773473  0.57904637  0.73501838    -0.05600
H819        H  0.12967325  0.87365289  0.74314143     0.07700
C820        C  0.05230831  0.89709635  0.82712657    -0.06000
Co821      Co  0.48698679  0.99065400  0.71827553     0.74200
N822        N  0.07223285  0.92717934  0.73592856    -0.25200
Co823      Co  0.07535121  0.98025911  0.76428736     0.74100
C824        C  0.10516572  0.88919279  0.82381177     0.43400
N825        N  0.42540965  0.92483862  0.80570930     0.01800
N826        N  0.07395716  0.92579313  0.79165478     0.01900
N827        N  0.04080299  0.57740311  0.70451843    -0.46000
H828        H  0.45058750  0.89548612  0.68257823     0.07700
N829        N  0.03911027  0.93056410  0.71818975     0.02200
N830        N  0.06330240  0.54084340  0.79274762     0.02000
C831        C  0.09598441  0.58625328  0.82146588     0.43600
N832        N  0.39174771  0.92913930  0.78815244    -0.24600
C833        C  0.42089282  0.58394235  0.69832166    -0.05600
N834        N  0.36695659  0.89573729  0.72681121    -0.45700
N835        N  0.10274658  0.56693630  0.79873428    -0.46000
C836        C  0.37742715  0.61000271  0.70646392     0.43400
N837        N  0.03472534  0.54035048  0.72013433     0.02200
N838        N  0.38443832  0.54248821  0.78571119    -0.24700
N839        N  0.43301745  0.93665144  0.71578881    -0.25100
N840        N  0.41561621  0.54096964  0.80453220     0.01900
H841        H  0.31378019  0.57629525  0.78105400     0.07800
H842        H  0.03065250  0.57072717  0.84726254     0.07800
N843        N  0.06727860  0.54021248  0.73816137    -0.25200
N844        N  0.03711378  0.92308318  0.80734580    -0.24800
N845        N  0.38944615  0.54632861  0.72982436     0.02200
C846        C  0.07833953  0.86375169  0.70946015     0.43600
C847        C  0.34978965  0.90935505  0.79644684    -0.06100
N848        N  0.02901828  0.54197677  0.80992769    -0.24800
H849        H  0.03119573  0.89296282  0.84383810     0.07800
N850        N  0.04180417  0.89369644  0.70187399    -0.46000
H851        H  0.31450944  0.91743578  0.78827893     0.07800
C852        C  0.35528951  0.58632927  0.81794496     0.43500
C853        C  0.42758789  0.90101076  0.69858090    -0.05600
Co854      Co  0.39489612  0.98564565  0.76173001     0.73800
N855        N  0.40755032  0.90291029  0.82568741    -0.45700
C856        C  0.07917465  0.60403196  0.71290620     0.43700
N857        N  0.35885279  0.58424340  0.72586505    -0.45700
Co858      Co  0.48362624  0.97665335  0.80806020     0.73900
C859        C  0.04662424  0.56954320  0.82899662    -0.06100
C860        C  0.09918434  0.88601962  0.73192367    -0.05600
N861        N  0.42573632  0.54576012  0.71385957    -0.25200
N862        N  0.11463119  0.90627180  0.80085009    -0.45900
H863        H  0.12896150  0.58823916  0.74655173     0.07700
C864        C  0.34666724  0.57183332  0.79202836    -0.06000
Cl865      Cl  0.48507537  0.98442673  0.76330230    -0.49000
C866        C  0.35940686  0.89321845  0.82192760     0.43500
H867        H  0.44427750  0.59178150  0.68275047     0.07700
N868        N  0.39902299  0.56576278  0.82416739    -0.45800
N869        N  0.25287748  0.62585053  0.17961254    -0.35700
N870        N  0.32538544  0.64271856  0.14079056    -0.56300
N871        N  0.24363131  0.65429025  0.10562584    -0.35700
N872        N  0.17219003  0.64536101  0.14565371    -0.56300
C873        C  0.29502317  0.62873584  0.19315029     0.27900
C874        C  0.21444287  0.62821396  0.19556284     0.27900
C875        C  0.28245236  0.67134480  0.09268058     0.27900
C876        C  0.20299969  0.67528007  0.09561652     0.27900
C877        C  0.35556267  0.62481108  0.15863628     0.36500
C878        C  0.34959885  0.63858622  0.11903495     0.36500
C879        C  0.14578842  0.62775768  0.16480660     0.36500
C880        C  0.14176931  0.64587295  0.12582575     0.36500
C881        C  0.28301159  0.63352388  0.21798271    -0.21000
C882        C  0.23261849  0.63314918  0.21949697    -0.21000
C883        C  0.26633216  0.70388250  0.07452936    -0.21000
C884        C  0.21639637  0.70669891  0.07652110    -0.21000
C885        C  0.39930191  0.60954803  0.14816972    -0.22100
C886        C  0.39544751  0.61809083  0.12310396    -0.22100
C887        C  0.09854389  0.61674723  0.15694280    -0.22100
C888        C  0.09588867  0.62883425  0.13234165    -0.22100
C889        C  0.34386547  0.62175430  0.18416225    -0.17400
C890        C  0.16354159  0.62306288  0.18934716    -0.17400
C891        C  0.15401242  0.66474849  0.10238660    -0.17400
C892        C  0.33182855  0.65672083  0.09601678    -0.17400
H893        H  0.30808351  0.63610630  0.23352550     0.15500
H894        H  0.21175989  0.63580210  0.23641955     0.15500
H895        H  0.28829478  0.72406371  0.06133612     0.15500
H896        H  0.19276966  0.72953149  0.06515230     0.15500
H897        H  0.43059132  0.59355689  0.15755269     0.13800
H898        H  0.42328613  0.61019022  0.10947284     0.13800
H899        H  0.06889603  0.60119579  0.16752468     0.13800
H900        H  0.06392504  0.62516712  0.12055172     0.13800
H901        H  0.25055974  0.61647831  0.16093068     0.27000
H902        H  0.24445692  0.62593630  0.11872435     0.27000
N903        N  0.24835825  0.88000940  0.11023847    -0.35700
N904        N  0.32726834  0.87772512  0.14562719    -0.56300
N905        N  0.25506754  0.86497682  0.18575534    -0.35700
N906        N  0.17643843  0.87297712  0.15005557    -0.56300
C907        C  0.28549719  0.89792075  0.09640548     0.27900
C908        C  0.20618883  0.89205246  0.09857014     0.27900
C909        C  0.29686994  0.87169045  0.19911673     0.27900
C910        C  0.21633198  0.87324213  0.20112554     0.27900
C911        C  0.35390886  0.87594727  0.12455297     0.36500
C912        C  0.35803757  0.86676871  0.16452536     0.36500
C913        C  0.14739584  0.86365456  0.13037096     0.36500
C914        C  0.14990294  0.86205771  0.17030824     0.36500
C915        C  0.26647548  0.92266905  0.07603476    -0.21000
C916        C  0.21637285  0.91840800  0.07725078    -0.21000
C917        C  0.28415729  0.87992846  0.22372692    -0.21000
C918        C  0.23394395  0.88136297  0.22489788    -0.21000
C919        C  0.40187581  0.86333643  0.13014410    -0.22100
C920        C  0.40458377  0.85827300  0.15539855    -0.22100
C921        C  0.10241122  0.84567685  0.13818538    -0.22100
C922        C  0.10375248  0.84566527  0.16356462    -0.22100
C923        C  0.33583820  0.88833412  0.10066061    -0.17400
C924        C  0.15912315  0.87642634  0.10583782    -0.17400
C925        C  0.16543949  0.87274731  0.19454842    -0.17400
C926        C  0.34617602  0.87164976  0.18990596    -0.17400
H927        H  0.28663337  0.94096371  0.06150127     0.15500
H928        H  0.19038953  0.93268767  0.06387968     0.15500
H929        H  0.30832503  0.88413180  0.23952566     0.15500
H930        H  0.21291530  0.88674545  0.24160776     0.15500
H931        H  0.43223822  0.85884409  0.11759507     0.13800
H932        H  0.43738620  0.84949616  0.16568349     0.13800
H933        H  0.07122915  0.83495754  0.12693036     0.13800
H934        H  0.07420693  0.83456293  0.17553819     0.13800
H935        H  0.25143756  0.85500802  0.12478918     0.27000
H936        H  0.25353488  0.85427337  0.16732168     0.27000
C937        C  0.11367412  0.66907745  0.06099240    -0.15600
C938        C  0.11315347  0.67945189  0.08540882    -0.30700
H939        H  0.14303077  0.64624466  0.05356265     0.13500
H940        H  0.08433065  0.70284696  0.09296655     0.14000
C941        C  0.40705811  0.69222605  0.07773744    -0.15600
C942        C  0.36575511  0.66582540  0.07469587    -0.30700
H943        H  0.41857446  0.70161418  0.09649266     0.13500
H944        H  0.35143239  0.66088460  0.05602003     0.14000
C945        C  0.12395847  0.84264024  0.06758500    -0.15600
C946        C  0.11933735  0.87260037  0.08731567    -0.30700
H947        H  0.15980052  0.83009079  0.06159790     0.13500
H948        H  0.08295468  0.88447724  0.09281975     0.14000
C949        C  0.37097245  0.88872754  0.07930810    -0.15600
C950        C  0.35933091  0.86731757  0.05739927    -0.30700
H951        H  0.40901320  0.89800048  0.08285495     0.13500
H952        H  0.32220724  0.85406101  0.05444548     0.14000
C953        C  0.11294951  0.85627377  0.96758567    -0.15600
C954        C  0.10537396  0.89372194  0.95147491    -0.30700
H955        H  0.14829517  0.83781112  0.96767367     0.13500
H956        H  0.06861642  0.90815178  0.94891552     0.14000
C957        C  0.39204252  0.85766610  0.94280621    -0.15600
C958        C  0.36054009  0.89292548  0.95001113    -0.30700
H959        H  0.39338585  0.84680677  0.92338895     0.13500
H960        H  0.35917373  0.90316664  0.96945127     0.14000
C961        C  0.10333599  0.71038975  0.93367124    -0.15600
C962        C  0.07190338  0.68381311  0.94749119    -0.30700
H963        H  0.10336936  0.75090864  0.93471248     0.13500
H964        H  0.07425418  0.64340185  0.94802107     0.14000
C965        C  0.35947336  0.69794571  0.93622502    -0.15600
C966        C  0.36159608  0.68537756  0.96030496    -0.30700
H967        H  0.38501124  0.72553921  0.92929841     0.13500
H968        H  0.33480879  0.65955726  0.96764997     0.14000
C969        C  0.34360663  0.59639081  0.56506710    -0.15600
C970        C  0.31779099  0.61819898  0.58326996    -0.30700
H971        H  0.38330166  0.59663729  0.56538840     0.13500
H972        H  0.27848195  0.61348600  0.58354886     0.14000
C973        C  0.31728868  0.85125833  0.55944517    -0.15600
C974        C  0.34041535  0.86465430  0.58067116    -0.30700
H975        H  0.30503199  0.81301359  0.55695950     0.13500
H976        H  0.34805599  0.90386888  0.58400124     0.14000
C977        C  0.18332757  0.59275149  0.59744961    -0.15600
C978        C  0.16531501  0.58078873  0.57492837    -0.30700
H979        H  0.21427079  0.57223330  0.60489111     0.13500
H980        H  0.13363598  0.60050380  0.56774256     0.14000
C981        C  0.18092538  0.85404410  0.59250409    -0.15600
C982        C  0.15344755  0.88319907  0.57765215    -0.30700
H983        H  0.22058915  0.85650560  0.59192315     0.13500
H984        H  0.11402470  0.87851473  0.57684026     0.14000
C985        C  0.14305651  0.62075913  0.44555898    -0.15600
C986        C  0.17260015  0.63182204  0.46490096    -0.30700
H987        H  0.13235552  0.58216783  0.44274208     0.13500
H988        H  0.18487834  0.66998074  0.46743523     0.14000
C989        C  0.11070396  0.87990563  0.44790237    -0.15600
C990        C  0.14241858  0.91753101  0.44471468    -0.30700
H991        H  0.09737600  0.87317573  0.46642138     0.13500
H992        H  0.15819331  0.92300365  0.42650993     0.14000
C993        C  0.31940704  0.61038802  0.45236360    -0.15600
C994        C  0.30247522  0.62106481  0.42958522    -0.30700
H995        H  0.34517409  0.63511200  0.46166970     0.13500
H996        H  0.27607591  0.59620192  0.42076427     0.14000
C997        C  0.32164347  0.88197512  0.45937145    -0.15600
C998        C  0.31251607  0.88443290  0.43485384    -0.30700
H999        H  0.34150736  0.85035068  0.46682272     0.13500
H1000       H  0.29152893  0.91578000  0.42780977     0.14000
N1001       N  0.84696742  0.25418792  0.41152061    -0.35700
N1002       N  0.85781099  0.17777823  0.37267159    -0.56300
N1003       N  0.87637225  0.25519984  0.33722807    -0.35700
N1004       N  0.85854349  0.33250995  0.37409866    -0.56300
C1005       C  0.82747136  0.21319278  0.42222682     0.27900
C1006       C  0.82763917  0.29458043  0.42303400     0.27900
C1007       C  0.87230285  0.21466366  0.32205568     0.27900
C1008       C  0.87485243  0.29651995  0.32286061     0.27900
C1009       C  0.85982288  0.14967038  0.39321705     0.36500
C1010       C  0.87479427  0.14876136  0.35408770     0.36500
C1011       C  0.85807320  0.36072310  0.39496422     0.36500
C1012       C  0.87631114  0.36185637  0.35592147     0.36500
C1013       C  0.79544627  0.22760943  0.44071668    -0.21000
C1014       C  0.79537769  0.27891143  0.44117271    -0.21000
C1015       C  0.86751321  0.23067227  0.29779186    -0.21000
C1016       C  0.86931711  0.28206610  0.29829353    -0.21000
C1017       C  0.87810912  0.10269860  0.38773698    -0.22100
C1018       C  0.88798751  0.10221748  0.36292458    -0.22100
C1019       C  0.87476883  0.40841011  0.38992450    -0.22100
C1020       C  0.88668034  0.40901655  0.36523965    -0.22100
C1021       C  0.83862239  0.16321446  0.41587015    -0.17400
C1022       C  0.83956883  0.34505775  0.41804401    -0.17400
C1023       C  0.88271744  0.34661088  0.33101527    -0.17400
C1024       C  0.87728533  0.16374665  0.32923315    -0.17400
H1025       H  0.77385185  0.20376001  0.45246542     0.15500
H1026       H  0.77331750  0.30189450  0.45327609     0.15500
H1027       H  0.86400842  0.20767209  0.28132343     0.15500
H1028       H  0.86741986  0.30612850  0.28231063     0.15500
H1029       H  0.88301264  0.07177026  0.40028410     0.13800
H1030       H  0.90310394  0.07102940  0.35275362     0.13800
H1031       H  0.87812548  0.43952135  0.40270969     0.13800
H1032       H  0.90111730  0.44067286  0.35535088     0.13800
H1033       H  0.87493941  0.25453587  0.39851764     0.27000
H1034       H  0.88645236  0.25471201  0.35579296     0.27000
N1035       N  0.61686127  0.17753690  0.37965436    -0.35700
N1036       N  0.61262097  0.25746965  0.34330097    -0.56300
N1037       N  0.61696905  0.33344976  0.38247802    -0.35700
N1038       N  0.62048585  0.25366685  0.41898337    -0.56300
C1039       C  0.62028099  0.14971244  0.35861733     0.27900
C1040       C  0.63160180  0.14883883  0.39893171     0.27900
C1041       C  0.60519057  0.36291504  0.36306253     0.27900
C1042       C  0.60847508  0.36025583  0.40336119     0.27900
C1043       C  0.61259411  0.21776381  0.32752295     0.36500
C1044       C  0.61418804  0.29914962  0.32917974     0.36500
C1045       C  0.61811231  0.21169263  0.43270679     0.36500
C1046       C  0.61244017  0.29250898  0.43461260     0.36500
C1047       C  0.63623776  0.10230481  0.36459030    -0.21000
C1048       C  0.64433112  0.10200195  0.38983371    -0.21000
C1049       C  0.58946060  0.40899404  0.37178937    -0.21000
C1050       C  0.59165964  0.40730989  0.39714347    -0.21000
C1051       C  0.61623211  0.23443192  0.30336991    -0.22100
C1052       C  0.61763994  0.28552780  0.30441483    -0.22100
C1053       C  0.60559432  0.22397681  0.45682850    -0.22100
C1054       C  0.60323530  0.27492620  0.45820008    -0.22100
C1055       C  0.61002283  0.16640286  0.33422769    -0.17400
C1056       C  0.63207216  0.16317271  0.42448680    -0.17400
C1057       C  0.61415821  0.34358198  0.42805479    -0.17400
C1058       C  0.60693868  0.34913635  0.33772960    -0.17400
H1059       H  0.64332490  0.07151854  0.35209153     0.15500
H1060       H  0.65789807  0.07041597  0.40012463     0.15500
H1061       H  0.57652877  0.44040199  0.36115504     0.15500
H1062       H  0.58054785  0.43690962  0.40963084     0.15500
H1063       H  0.12186929  0.20711814  0.28492589     0.13800
H1064       H  0.12769238  0.30488191  0.28626429     0.13800
H1065       H  0.59957548  0.19886931  0.47210511     0.13800
H1066       H  0.59447455  0.29594473  0.47472703     0.13800
H1067       H  0.60134010  0.21276595  0.38091992     0.27000
H1068       H  0.63329095  0.29854048  0.38149675     0.27000
O1069       O  0.76367957  0.39274572  0.48445368    -0.79300
O1070       O  0.77718356  0.09099788  0.53884245    -0.79300
O1071       O  0.78703715  0.03617489  0.45462822    -0.79300
O1072       O  0.82106966  0.42487903  0.54180651    -0.79200
O1073       O  0.79822765  0.07318292  0.49085740    -0.79400
O1074       O  0.76059326  0.37329917  0.53360765    -0.79300
O1075       O  0.82618841  0.02780184  0.54128584    -0.79300
O1076       O  0.81605977  0.45591356  0.48233055    -0.79300
C1077       C  0.80456369  0.41088946  0.47771557     1.10400
C1078       C  0.81669996  0.07222761  0.54674403     1.10300
C1079       C  0.80456808  0.07203346  0.46715658     1.10500
C1080       C  0.80224000  0.38206195  0.54324754     1.10300
O1081       O  0.67012615  0.42553083  0.53850709    -0.79300
O1082       O  0.71622238  0.12202401  0.50142443    -0.79300
O1083       O  0.72323316  0.46214993  0.46028849    -0.79300
O1084       O  0.73061178  0.03479545  0.56596556    -0.79200
O1085       O  0.68010990  0.05511667  0.53547695    -0.79300
O1086       O  0.66831390  0.44098961  0.48727409    -0.79300
O1087       O  0.72919880  0.43268991  0.56642895    -0.79200
O1088       O  0.70243505  0.05691611  0.47689998    -0.79300
Co1089     Co  0.71646545  0.41317415  0.51111712     1.51500
Co1090     Co  0.73588743  0.05830447  0.51244041     1.51700
Co1091     Co  0.76085890  0.00621340  0.48296817     1.51600
Co1092     Co  0.77415426  0.98171849  0.55142607     1.51500
O1093       O  0.74412670  0.98412788  0.51714118    -1.41200
C1094       C  0.68650476  0.41841341  0.56019349     1.10400
C1095       C  0.69838300  0.10433182  0.48149906     1.10500
C1096       C  0.68206476  0.44359112  0.46503448     1.10400
C1097       C  0.69156229  0.05588107  0.55830388     1.10400
N1098       N  0.84946009  0.23729183  0.68898927    -0.35700
N1099       N  0.85152122  0.15995779  0.65073102    -0.56300
N1100       N  0.84872181  0.23436002  0.61241578    -0.35700
N1101       N  0.85035281  0.31167921  0.64847726    -0.56300
C1102       C  0.86670204  0.19758971  0.70194645     0.27900
C1103       C  0.86415296  0.27933010  0.70104597     0.27900
C1104       C  0.86078008  0.19264987  0.59983083     0.27900
C1105       C  0.86235831  0.27338807  0.59843924     0.27900
C1106       C  0.84505809  0.13219918  0.67121516     0.36500
C1107       C  0.83721591  0.13148787  0.63122133     0.36500
C1108       C  0.84260090  0.34128801  0.66842277     0.36500
C1109       C  0.84144252  0.33971652  0.62811168     0.36500
C1110       C  0.89086956  0.21468027  0.72298435    -0.21000
C1111       C  0.88918834  0.26612788  0.72245349    -0.21000
C1112       C  0.88330484  0.20527133  0.57778751    -0.21000
C1113       C  0.88501466  0.25639130  0.57712402    -0.21000
C1114       C  0.82737205  0.08542523  0.66471470    -0.22100
C1115       C  0.82136425  0.08531929  0.63933276    -0.22100
C1116       C  0.82880254  0.38850677  0.66068643    -0.22100
C1117       C  0.82743755  0.38735797  0.63520077    -0.22100
C1118       C  0.86159303  0.14651749  0.69503562    -0.17400
C1119       C  0.85653486  0.32916387  0.69297825    -0.17400
C1120       C  0.84953703  0.32327041  0.60342795    -0.17400
C1121       C  0.84382893  0.14507880  0.60622843    -0.17400
H1122       H  0.90858352  0.19244350  0.73706828     0.15500
H1123       H  0.90555005  0.29097584  0.73604490     0.15500
H1124       H  0.89655059  0.18089164  0.56334032     0.15500
H1125       H  0.89965293  0.27848675  0.56220495     0.15500
H1126       H  0.82032877  0.05452113  0.67697677     0.13800
H1127       H  0.80928781  0.05405929  0.62806402     0.13800
H1128       H  0.82192824  0.42085696  0.67226099     0.13800
H1129       H  0.81858200  0.41855753  0.62341923     0.13800
H1130       H  0.82747117  0.23598642  0.67318626     0.27000
H1131       H  0.82510945  0.23576745  0.62748943     0.27000
N1132       N  0.65419829  0.22998252  0.61772620    -0.35700
N1133       N  0.63780768  0.15832706  0.65724527    -0.56300
N1134       N  0.61152743  0.23963401  0.69114259    -0.35700
N1135       N  0.62857499  0.31150415  0.65150359    -0.56300
C1136       C  0.67139686  0.18800718  0.60664969     0.27900
C1137       C  0.67119111  0.26935290  0.60468761     0.27900
C1138       C  0.59506430  0.19994403  0.70413677     0.27900
C1139       C  0.59084427  0.28104665  0.70117378     0.27900
C1140       C  0.65107509  0.12568410  0.63928475     0.36500
C1141       C  0.62766790  0.13081197  0.67747135     0.36500
C1142       C  0.64310716  0.33940697  0.63215550     0.36500
C1143       C  0.61602069  0.34390282  0.66964863     0.36500
C1144       C  0.69867397  0.20093278  0.58607170    -0.22800
C1145       C  0.69851302  0.25200320  0.58482927    -0.21000
C1146       C  0.56474909  0.21660153  0.72297942    -0.21000
C1147       C  0.56214913  0.26759915  0.72113247    -0.21000
C1148       C  0.65007339  0.07739019  0.64828994    -0.22100
C1149       C  0.63566155  0.08066368  0.67243436    -0.22100
C1150       C  0.63970332  0.38972150  0.63806236    -0.22100
C1151       C  0.62259446  0.39256078  0.66175959    -0.22100
C1152       C  0.66510768  0.13829377  0.61496285    -0.17400
C1153       C  0.66344113  0.32065312  0.61000874    -0.17400
C1154       C  0.59626841  0.33071168  0.69280333    -0.17400
C1155       C  0.60540214  0.14892567  0.69935175    -0.17400
H1156       H  0.71814750  0.17634142  0.57359239     0.15500
H1157       H  0.71723750  0.27384138  0.57102266     0.15500
H1158       H  0.54565376  0.19425840  0.73645180     0.15500
H1159       H  0.54061429  0.29189956  0.73286995     0.15500
H1160       H  0.65845114  0.04310617  0.63850170     0.13800
H1161       H  0.63016233  0.04933019  0.68462760     0.13800
H1162       H  0.64954606  0.42127094  0.62674413     0.13800
H1163       H  0.61613300  0.42671517  0.67203280     0.13800
H1164       H  0.62986158  0.23138370  0.63237943     0.27000
H1165       H  0.63750899  0.23882749  0.67718953     0.27000
C1166       C  0.89279324  0.12663552  0.31014485     0.43300
N1167       N  0.93883368  0.09491878  0.28230205     0.02200
C1168       C  0.93550895  0.38469705  0.21223465    -0.05600
H1169       H  0.97039595  0.33571699  0.29885162     0.07700
C1170       C  0.60766522  0.43719020  0.31322546    -0.06000
Co1171     Co  0.91559994  0.50107728  0.26233239     0.74200
N1172       N  0.95537130  0.40834303  0.28393700    -0.25200
Co1173     Co  0.50303545  0.41363912  0.25794536     0.74100
C1174       C  0.59035934  0.38639634  0.31908998     0.43400
N1175       N  0.58064436  0.06806339  0.28944988     0.01800
N1176       N  0.55060947  0.41414947  0.28784643     0.01900
N1177       N  0.87605627  0.44008323  0.22127165    -0.46000
H1178       H  0.84630809  0.05438746  0.31182401     0.07700
N1179       N  0.92160959  0.44247243  0.28836162     0.02200
N1180       N  0.56570080  0.42023366  0.23514744     0.02000
C1181       C  0.63203949  0.40095606  0.21545773     0.43600
N1182       N  0.54683743  0.10111754  0.28336769    -0.24600
C1183       C  0.86209560  0.05242217  0.21955530    -0.05600
N1184       N  0.93082714  0.13568334  0.29543245    -0.45700
N1185       N  0.58522330  0.38619938  0.22005862    -0.46000
C1186       C  0.87187086  0.09465248  0.20405481     0.43400
N1187       N  0.91532274  0.44744920  0.23502625     0.02200
N1188       N  0.55545600  0.08742557  0.22972253    -0.24700
N1189       N  0.90894859  0.05768747  0.28743032    -0.25100
N1190       N  0.59256730  0.05824342  0.23600878     0.01900
H1191       H  0.54888128  0.14319746  0.20094550     0.07800
H1192       H  0.67266555  0.46916168  0.23089823     0.07800
N1193       N  0.95167713  0.41622639  0.23034349    -0.25200
N1194       N  0.58035427  0.45148677  0.29353860    -0.24800
N1195       N  0.93374361  0.08292330  0.22890696     0.02200
C1196       C  0.90601179  0.38172511  0.31319950     0.43600
C1197       C  0.55027404  0.14052496  0.29852965    -0.06100
N1198       N  0.59770640  0.45552576  0.24090308    -0.24800
H1199       H  0.63839241  0.45751775  0.32095217     0.07800
N1200       N  0.89018010  0.42741183  0.30561694    -0.46000
H1201       H  0.52735247  0.17334954  0.29777422     0.07800
C1202       C  0.62018984  0.09680954  0.20430245     0.43500
C1203       C  0.87784015  0.07434824  0.30506322    -0.05600
Co1204     Co  0.49557138  0.09229842  0.25480669     0.73800
N1205       N  0.60895117  0.08451601  0.30807212    -0.45700
C1206       C  0.88474682  0.40107734  0.20651430     0.43700
N1207       N  0.91706274  0.11262822  0.21084649    -0.45700
Co1208     Co  0.58643813  0.51006425  0.26773998     0.73900
C1209       C  0.63978819  0.44694613  0.22912068    -0.06100
C1210       C  0.94884291  0.36953273  0.29885335    -0.05600
N1211       N  0.90122857  0.04815760  0.23419784    -0.25200
N1212       N  0.55494601  0.37565231  0.30270209    -0.45900
H1213       H  0.95418602  0.35140753  0.20599311     0.07700
C1214       C  0.56968996  0.11382500  0.20967965    -0.06000
Cl1215     Cl  0.49768303  0.50483428  0.26077970    -0.49000
C1216       C  0.59135627  0.13022917  0.31484406     0.43500
H1217       H  0.82951299  0.02963050  0.22041721     0.07700
N1218       N  0.63077253  0.06243924  0.22136368    -0.45800
O1219       O  0.94268129  0.28133100  0.95747960    -0.79300
O1220       O  0.55784581  0.24282489  0.06300876    -0.79300
O1221       O  0.89050171  0.31105233  0.03832905    -0.79300
O1222       O  0.55279332  0.31097753  0.98674830    -0.79200
O1223       O  0.96201105  0.34619566  0.04290475    -0.79400
O1224       O  0.51322827  0.26207633  0.96094021    -0.79300
O1225       O  0.57256642  0.30140867  0.03584571    -0.79300
O1226       O  0.89642199  0.31477312  0.98665586    -0.79300
C1227       C  0.90881500  0.31041621  0.96409509     1.10400
C1228       C  0.57682774  0.28447786  0.05747340     1.10300
C1229       C  0.91761983  0.34319926  0.04877017     1.10500
C1230       C  0.53770445  0.30134914  0.96522346     1.10300
O1231       O  0.52072699  0.15970810  0.97521451    -0.79300
O1232       O  0.94865320  0.25111527  0.06564856    -0.79300
O1233       O  0.90249541  0.20850119  0.98525493    -0.79300
O1234       O  0.60349520  0.19977545  0.02774598    -0.79200
O1235       O  0.53940558  0.15273813  0.03494805    -0.79300
O1236       O  0.97921478  0.19152368  0.97565229    -0.79300
O1237       O  0.58503188  0.20946088  0.97819994    -0.79200
O1238       O  0.90687706  0.20759919  0.03732924    -0.79300
Co1239     Co  0.99967548  0.26295457  0.97784344     1.51500
Co1240     Co  0.99918194  0.28324420  0.04451133     1.51700
Co1241     Co  0.90339118  0.26098765  0.01169471     1.51600
Co1242     Co  0.57394312  0.25510408  0.00733310     1.51500
O1243       O  0.97688980  0.26642849  0.01169435    -1.41200
C1244       C  0.56510043  0.16867248  0.97129386     1.10400
C1245       C  0.91980816  0.21564714  0.05976368     1.10500
C1246       C  0.93374929  0.18203936  0.97375874     1.10400
C1247       C  0.58506859  0.15945268  0.03577542     1.10400
N1248       N  0.79481636  0.37745230  0.88477940    -0.35700
N1249       N  0.71758115  0.37193078  0.92196635    -0.56300
N1250       N  0.64400795  0.37616884  0.88379594    -0.35700
N1251       N  0.72125177  0.38859301  0.84675824    -0.56300
C1252       C  0.81839593  0.38848751  0.90621399     0.27900
C1253       C  0.82102739  0.39747562  0.86605766     0.27900
C1254       C  0.61889028  0.38823030  0.90449554     0.27900
C1255       C  0.62113227  0.39829941  0.86456770     0.27900
C1256       C  0.75661871  0.35827479  0.93560593     0.36500
C1257       C  0.67796581  0.35789999  0.93494079     0.36500
C1258       C  0.76140090  0.37746975  0.83314597     0.36500
C1259       C  0.68157108  0.37702100  0.83268074     0.36500
C1260       C  0.85978470  0.41616256  0.90135875    -0.21000
C1261       C  0.86114850  0.42263930  0.87612800    -0.21000
C1262       C  0.58037387  0.41929346  0.89871342    -0.21000
C1263       C  0.58272273  0.42708175  0.87356846    -0.21000
C1264       C  0.74184200  0.33482334  0.95713989    -0.22100
C1265       C  0.69177283  0.33469053  0.95672776    -0.22100
C1266       C  0.74697634  0.35704417  0.81059574    -0.22100
C1267       C  0.69654152  0.35728808  0.81018732    -0.22100
C1268       C  0.80491782  0.37113352  0.92981894    -0.17400
C1269       C  0.81002051  0.39029043  0.84042423    -0.17400
C1270       C  0.63269439  0.38884403  0.83938390    -0.17400
C1271       C  0.62990507  0.37041469  0.92825773    -0.17400
H1272       H  0.88592300  0.43076802  0.91468337     0.15500
H1273       H  0.88834630  0.44481720  0.86692696     0.15500
H1274       H  0.55449671  0.43593206  0.91140879     0.15500
H1275       H  0.55955590  0.45256265  0.86349164     0.15500
H1276       H  0.76456127  0.32011882  0.97184127     0.13800
H1277       H  0.66833759  0.32002200  0.97102304     0.13800
H1278       H  0.77014130  0.34307383  0.79594903     0.13800
H1279       H  0.67365127  0.34428568  0.79506001     0.13800
H1280       H  0.76535376  0.35295896  0.88292387     0.27000
H1281       H  0.67197792  0.34980796  0.88251568     0.27000
N1282       N  0.74231444  0.08362802  0.85025994    -0.35700
N1283       N  0.82567662  0.09099424  0.88797856    -0.56300
N1284       N  0.75248775  0.10119438  0.92375401    -0.35700
N1285       N  0.67054134  0.08759287  0.88880870    -0.56300
C1286       C  0.78274600  0.06482902  0.83916083     0.27900
C1287       C  0.70227381  0.06184227  0.83953442     0.27900
C1288       C  0.79281653  0.09551151  0.93809434     0.27900
C1289       C  0.71342531  0.09576305  0.93852669     0.27900
C1290       C  0.84734348  0.10156279  0.86634214     0.36500
C1291       C  0.85298973  0.11277002  0.90609786     0.36500
C1292       C  0.64195389  0.09428565  0.86859832     0.36500
C1293       C  0.64836782  0.11169939  0.90764239     0.36500
C1294       C  0.76815103  0.02913765  0.82185653    -0.21000
C1295       C  0.71764568  0.02759100  0.82192559    -0.21000
C1296       C  0.77903512  0.08385900  0.96203013    -0.21000
C1297       C  0.72873316  0.08423702  0.96232745    -0.21000
C1298       C  0.88963378  0.12905966  0.87070105    -0.22100
C1299       C  0.89291928  0.13664586  0.89593151    -0.22100
C1300       C  0.60119255  0.12227843  0.87454921    -0.22100
C1301       C  0.60554457  0.13398490  0.89926589    -0.22100
C1302       C  0.83161219  0.08236466  0.84319723    -0.17400
C1303       C  0.65267947  0.07403630  0.84516297    -0.17400
C1304       C  0.66634818  0.11244850  0.93224653    -0.17400
C1305       C  0.83980133  0.11218844  0.93136958    -0.17400
H1306       H  0.79127002  0.00559918  0.81061552     0.15500
H1307       H  0.69522521  0.00282402  0.81077105     0.15500
H1308       H  0.80277203  0.07966278  0.97798771     0.15500
H1309       H  0.70604695  0.08032648  0.97855668     0.15500
H1310       H  0.91507824  0.14286663  0.85709261     0.13800
H1311       H  0.92091408  0.15804568  0.90541134     0.13800
H1312       H  0.57229533  0.13449588  0.86225031     0.13800
H1313       H  0.58017307  0.15687537  0.90957531     0.13800
H1314       H  0.74214642  0.11356235  0.86270960     0.27000
H1315       H  0.75118390  0.11823500  0.90649449     0.27000
C1316       C  0.87845280  0.37048353  0.70777140     0.43300
N1317       N  0.88942350  0.43344238  0.73210005     0.02200
C1318       C  0.60340313  0.08355847  0.73610175    -0.05600
H1319       H  0.62422818  0.38401367  0.74177436     0.07700
C1320       C  0.54175108  0.40370726  0.82334149    -0.06000
Co1321     Co  0.98040872  0.48738055  0.71794336     0.74200
N1322       N  0.56569851  0.43571818  0.73350097    -0.25200
Co1323     Co  0.56557965  0.48983014  0.76158093     0.74100
C1324       C  0.59417135  0.39372999  0.81953496     0.43400
N1325       N  0.91338573  0.43607410  0.80665477     0.01800
N1326       N  0.56462256  0.43594936  0.78892347     0.01900
N1327       N  0.54353508  0.08435689  0.70721435    -0.46000
H1328       H  0.94601019  0.38934742  0.68490300     0.07700
N1329       N  0.53313217  0.43731580  0.71543749     0.02200
N1330       N  0.57640988  0.03280122  0.79443290     0.02000
C1331       C  0.61125518  0.06484193  0.82697126     0.43600
N1332       N  0.88131222  0.43744183  0.78820547    -0.24600
C1333       C  0.93016688  0.08094896  0.70190435    -0.05600
N1334       N  0.85918460  0.39539722  0.72745580    -0.45700
N1335       N  0.61752357  0.05325427  0.80287159    -0.46000
C1336       C  0.88668606  0.10737161  0.70999010     0.43400
N1337       N  0.54011495  0.04494782  0.72160292     0.02200
N1338       N  0.89821683  0.04004304  0.78969227    -0.24700
N1339       N  0.92608667  0.43452124  0.71637785    -0.25100
N1340       N  0.93007075  0.03580056  0.80812185     0.01900
H1341       H  0.82650297  0.07178564  0.78717052     0.07800
H1342       H  0.54426597  0.04548903  0.85065994     0.07800
N1343       N  0.57435368  0.04333861  0.73884822    -0.25200
N1344       N  0.52769652  0.43274231  0.80448751    -0.24800
N1345       N  0.89971199  0.04464907  0.73400414     0.02200
C1346       C  0.57436950  0.37131453  0.70773298     0.43600
C1347       C  0.84016047  0.41465574  0.79543050    -0.06100
N1348       N  0.54214663  0.02942039  0.81156347    -0.24800
H1349       H  0.51979915  0.39688162  0.83953510     0.07800
N1350       N  0.53738526  0.39992334  0.69952426    -0.46000
H1351       H  0.80546705  0.41964598  0.78610816     0.07800
C1352       C  0.86954261  0.07703661  0.82362524     0.43500
C1353       C  0.92194674  0.39682874  0.70030277    -0.05600
Co1354     Co  0.88574113  0.48982711  0.75979015     0.73800
N1355       N  0.89549948  0.41262896  0.82615932    -0.45700
C1356       C  0.58189601  0.11130483  0.71535788     0.43700
N1357       N  0.86887406  0.08226859  0.72978702    -0.45700
Co1358     Co  0.97077040  0.48910908  0.80870988     0.73900
C1359       C  0.56060190  0.04961647  0.83260865    -0.06100
C1360       C  0.59393761  0.39519460  0.73011591    -0.05600
N1361       N  0.93559068  0.04340300  0.71784841    -0.25200
N1362       N  0.60455831  0.41366746  0.79729173    -0.45900
H1363       H  0.63581735  0.09190221  0.74692458     0.07700
C1364       C  0.86044123  0.06777417  0.79733040    -0.06000
Cl1365     Cl  0.97516809  0.48801129  0.76321195    -0.49000
C1366       C  0.84890641  0.39843993  0.82098432     0.43500
H1367       H  0.95265550  0.08760998  0.68586047     0.07700
N1368       N  0.91397587  0.05726005  0.82864592    -0.45800
N1369       N  0.74588594  0.11259929  0.17704420    -0.35700
N1370       N  0.82074021  0.12484274  0.14030901    -0.56300
N1371       N  0.74250705  0.12227563  0.10148510    -0.35700
N1372       N  0.66777492  0.11831914  0.13943564    -0.56300
C1373       C  0.78623545  0.11898005  0.19171233     0.27900
C1374       C  0.70561018  0.11806093  0.19150145     0.27900
C1375       C  0.78145048  0.14151575  0.08944769     0.27900
C1376       C  0.70189975  0.13628403  0.08870548     0.27900
C1377       C  0.85059523  0.11281327  0.15945929     0.36500
C1378       C  0.84782457  0.12119086  0.11953909     0.36500
C1379       C  0.64022062  0.10595500  0.15921631     0.36500
C1380       C  0.63951364  0.11069569  0.11906337     0.36500
C1381       C  0.77122194  0.12898926  0.21570111    -0.21000
C1382       C  0.72078194  0.12869364  0.21555903    -0.21000
C1383       C  0.76543162  0.16785081  0.06896524    -0.21000
C1384       C  0.71554367  0.16489881  0.06861735    -0.21000
C1385       C  0.89692502  0.10161665  0.15078809    -0.22100
C1386       C  0.89523275  0.10726328  0.12548201    -0.22100
C1387       C  0.59431193  0.09025901  0.15131423    -0.22100
C1388       C  0.59378788  0.09357322  0.12593364    -0.22100
C1389       C  0.83623483  0.11226855  0.18458017    -0.17400
C1390       C  0.65574342  0.10944594  0.18426644    -0.17400
C1391       C  0.65298016  0.12361183  0.09465741    -0.17400
C1392       C  0.83132393  0.13482755  0.09567045    -0.17400
H1393       H  0.79431743  0.13539980  0.23175669     0.15500
H1394       H  0.69786648  0.13485254  0.23156039     0.15500
H1395       H  0.78731970  0.18818851  0.05580265     0.15500
H1396       H  0.69236457  0.18341418  0.05530487     0.15500
H1397       H  0.92869161  0.09079302  0.16149787     0.13800
H1398       H  0.92546579  0.10197356  0.11289172     0.13800
H1399       H  0.56421313  0.07755357  0.16252592     0.13800
H1400       H  0.56316334  0.08456312  0.11392338     0.13800
H1401       H  0.74575539  0.09893775  0.15900858     0.27000
H1402       H  0.74394487  0.09755206  0.11625604     0.27000
N1403       N  0.74373840  0.34283283  0.11388210    -0.35700
N1404       N  0.82673799  0.36449988  0.14554387    -0.56300
N1405       N  0.75506226  0.37765779  0.18587630    -0.35700
N1406       N  0.67485694  0.34612004  0.15484782    -0.56300
C1407       C  0.78242045  0.33588656  0.09877717     0.27900
C1408       C  0.70651572  0.31487639  0.10466943     0.27900
C1409       C  0.79785246  0.37510808  0.19883555     0.27900
C1410       C  0.71747284  0.37660205  0.20233183     0.27900
C1411       C  0.84590704  0.37837684  0.12354672     0.36500
C1412       C  0.85560371  0.38447447  0.16341732     0.36500
C1413       C  0.64396174  0.33719645  0.13579821     0.36500
C1414       C  0.64783341  0.36718142  0.17292648     0.36500
C1415       C  0.76988186  0.30280691  0.07992938    -0.21000
C1416       C  0.72201294  0.28960357  0.08368134    -0.21000
C1417       C  0.78692359  0.37170540  0.22387874    -0.21000
C1418       C  0.73658989  0.37327452  0.22606303    -0.21000
C1419       C  0.88706133  0.40757782  0.12753522    -0.22100
C1420       C  0.89385386  0.41046687  0.15278020    -0.22100
C1421       C  0.59692816  0.35156742  0.14179976    -0.22100
C1422       C  0.59947494  0.37157427  0.16519894    -0.22100
C1423       C  0.82692106  0.36255915  0.10030069    -0.17400
C1424       C  0.65770626  0.31575236  0.11315363    -0.17400
C1425       C  0.66645338  0.38037094  0.19647951    -0.17400
C1426       C  0.84612032  0.38232333  0.18910138    -0.17400
H1427       H  0.79255795  0.29021588  0.06476189     0.15500
H1428       H  0.70036463  0.26600505  0.07161780     0.15500
H1429       H  0.81263062  0.36976011  0.23915523     0.15500
H1430       H  0.71634403  0.37194689  0.24320422     0.15500
H1431       H  0.90927685  0.42616525  0.11393356     0.13800
H1432       H  0.92215500  0.43165402  0.16220360     0.13800
H1433       H  0.56453286  0.34930505  0.13022818     0.13800
H1434       H  0.56893837  0.38764978  0.17500729     0.13800
H1435       H  0.74117860  0.37037501  0.12733087     0.27000
H1436       H  0.75169737  0.38618055  0.16734851     0.27000
C1437       C  0.61590110  0.12754967  0.05158045    -0.15600
C1438       C  0.61250565  0.13348599  0.07640072    -0.30700
H1439       H  0.64806037  0.11031427  0.04353227     0.13500
H1440       H  0.58017430  0.15182600  0.08371606     0.14000
C1441       C  0.89819449  0.18673163  0.08011942    -0.15600
C1442       C  0.86728913  0.14859318  0.07628826    -0.30700
H1443       H  0.90310473  0.20137520  0.09879363     0.13500
H1444       H  0.86067964  0.13534454  0.05749434     0.14000
C1445       C  0.60807773  0.31144138  0.07525210    -0.15600
C1446       C  0.61893335  0.29289868  0.09756994    -0.30700
H1447       H  0.62627134  0.34517093  0.06908527     0.13500
H1448       H  0.60047431  0.25987693  0.10438077     0.14000
C1449       C  0.85222968  0.37102012  0.07613099    -0.15600
C1450       C  0.90041309  0.36534216  0.07229102    -0.30700
H1451       H  0.82887271  0.37146479  0.05975573     0.13500
H1452       H  0.92581554  0.36341064  0.08771111     0.14000
C1453       C  0.55581520  0.33061401  0.94405956    -0.15600
C1454       C  0.59130801  0.36475405  0.94722226    -0.30700
H1455       H  0.54844695  0.31600058  0.92557919     0.13500
H1456       H  0.60021013  0.37750595  0.96585937     0.14000
C1457       C  0.88170838  0.33606697  0.94453571    -0.15600
C1458       C  0.84247392  0.36405705  0.94930963    -0.30700
H1459       H  0.89010192  0.32578786  0.92551679     0.13500
H1460       H  0.83305461  0.37267718  0.96838806     0.14000
C1461       C  0.63990629  0.14035366  0.95159288    -0.15600
C1462       C  0.59264482  0.13290232  0.95628363    -0.30700
H1463       H  0.66006038  0.16925595  0.96153904     0.13500
H1464       H  0.57314858  0.10231313  0.94731859     0.14000
C1465       C  0.86629735  0.14205455  0.95079514    -0.15600
C1466       C  0.91492458  0.14398275  0.95565993    -0.30700
H1467       H  0.84222537  0.16497445  0.96207698     0.13500
H1468       H  0.94031855  0.12105457  0.94521974     0.14000
C1469       C  0.84485019  0.09719068  0.56640956    -0.15600
C1470       C  0.82114156  0.11450028  0.58638439    -0.30700
H1471       H  0.88448236  0.09769563  0.56562288     0.13500
H1472       H  0.78208116  0.10857866  0.58780784     0.14000
C1473       C  0.82206401  0.34503921  0.56066356    -0.15600
C1474       C  0.84358193  0.35883181  0.58228678    -0.30700
H1475       H  0.80961051  0.30685467  0.55817912     0.13500
H1476       H  0.85126197  0.39807105  0.58553107     0.14000
C1477       C  0.68195140  0.09673942  0.59872602    -0.15600
C1478       C  0.66473908  0.08878690  0.57559367    -0.30700
H1479       H  0.71094346  0.07325091  0.60601333     0.13500
H1480       H  0.63498190  0.11150955  0.56850510     0.14000
C1481       C  0.68587404  0.35723811  0.59310277    -0.15600
C1482       C  0.65993523  0.38598422  0.57743480    -0.30700
H1483       H  0.72561833  0.35855623  0.59306334     0.13500
H1484       H  0.62047170  0.38221141  0.57604707     0.14000
C1485       C  0.64904914  0.12561759  0.44347622    -0.15600
C1486       C  0.67622344  0.13906802  0.46344549    -0.30700
H1487       H  0.64149883  0.08630775  0.44044838     0.13500
H1488       H  0.68595990  0.17796697  0.46613068     0.14000
C1489       C  0.62344304  0.38141449  0.44816709    -0.15600
C1490       C  0.65560344  0.41864659  0.44462644    -0.30700
H1491       H  0.61174000  0.37408373  0.46691766     0.13500
H1492       H  0.67061370  0.42426052  0.42627331     0.14000
C1493       C  0.82889330  0.11368967  0.45455117    -0.15600
C1494       C  0.81893852  0.12144109  0.43053520    -0.30700
H1495       H  0.85082558  0.14021775  0.46509555     0.13500
H1496       H  0.79647811  0.09465625  0.42038307     0.14000
C1497       C  0.83428809  0.38065363  0.46083095    -0.15600
C1498       C  0.82596365  0.38452479  0.43634897    -0.30700
H1499       H  0.85373723  0.34864330  0.46815506     0.13500
H1500       H  0.80540580  0.41635856  0.42950545     0.14000
N1501       N  0.85101083  0.75308716  0.41331208    -0.35700
N1502       N  0.86322344  0.67734852  0.37403184    -0.56300
N1503       N  0.87747957  0.75502569  0.33888471    -0.35700
N1504       N  0.85953968  0.83153265  0.37618174    -0.56300
C1505       C  0.83148925  0.71156858  0.42347318     0.27900
C1506       C  0.83058581  0.79294578  0.42483330     0.27900
C1507       C  0.87424608  0.71464494  0.32362243     0.27900
C1508       C  0.87267264  0.79626050  0.32473617     0.27900
C1509       C  0.86586052  0.64914675  0.39448612     0.36500
C1510       C  0.88083538  0.64895973  0.35538265     0.36500
C1511       C  0.86069549  0.85932232  0.39715301     0.36500
C1512       C  0.87652309  0.86099271  0.35791333     0.36500
C1513       C  0.79831036  0.72513021  0.44159555    -0.21000
C1514       C  0.79754971  0.77643172  0.44239392    -0.21000
C1515       C  0.86674205  0.73052860  0.29952481    -0.21000
C1516       C  0.86575395  0.78190041  0.30022558    -0.21000
C1517       C  0.88517617  0.60263554  0.38888857    -0.22100
C1518       C  0.89514174  0.60265817  0.36406491    -0.22100
C1519       C  0.87794601  0.90682036  0.39214707    -0.22100
C1520       C  0.88835206  0.90776275  0.36728164    -0.22100
C1521       C  0.84367120  0.66188774  0.41697737    -0.17400
C1522       C  0.84200676  0.84364414  0.42013418    -0.17400
C1523       C  0.88045804  0.84621253  0.33286367    -0.17400
C1524       C  0.88224118  0.66421830  0.33058081    -0.17400
H1525       H  0.77646593  0.70069135  0.45289551     0.15500
H1526       H  0.77448333  0.79881864  0.45428515     0.15500
H1527       H  0.86335018  0.70750571  0.28305493     0.15500
H1528       H  0.86168322  0.80606815  0.28437964     0.15500
H1529       H  0.89045546  0.57160711  0.40133576     0.13800
H1530       H  0.91062034  0.57186517  0.35373033     0.13800
H1531       H  0.88233701  0.93762576  0.40503750     0.13800
H1532       H  0.90251184  0.93939937  0.35726715     0.13800
H1533       H  0.87952392  0.75411111  0.40060210     0.27000
H1534       H  0.88955544  0.75487956  0.35716774     0.27000
N1535       N  0.62249079  0.67931532  0.38314670    -0.35700
N1536       N  0.61282144  0.75742503  0.34533719    -0.56300
N1537       N  0.61722433  0.83543030  0.38273855    -0.35700
N1538       N  0.61749126  0.75714602  0.42106705    -0.56300
C1539       C  0.60998277  0.65037844  0.36336416     0.27900
C1540       C  0.62118613  0.65038484  0.40362705     0.27900
C1541       C  0.60734784  0.86376634  0.36261593     0.27900
C1542       C  0.60603548  0.86299352  0.40298666     0.27900
C1543       C  0.61489369  0.71613069  0.33065921     0.36500
C1544       C  0.61862917  0.79755707  0.33040671     0.36500
C1545       C  0.62267905  0.71719006  0.43617602     0.36500
C1546       C  0.61451629  0.79801240  0.43596781     0.36500
C1547       C  0.60141592  0.60216997  0.37137945    -0.21000
C1548       C  0.60928625  0.60193774  0.39659415    -0.21000
C1549       C  0.59030897  0.91007223  0.37026183    -0.21000
C1550       C  0.58957328  0.90958480  0.39568206    -0.21000
C1551       C  0.62265923  0.73016065  0.30635587    -0.22100
C1552       C  0.62545311  0.78133551  0.30621705    -0.22100
C1553       C  0.61920007  0.73275607  0.46064594    -0.22100
C1554       C  0.61541668  0.78352343  0.46055887    -0.22100
C1555       C  0.60644200  0.66603988  0.33830451    -0.17400
C1556       C  0.62986718  0.66663611  0.42843646    -0.17400
C1557       C  0.61167063  0.84837779  0.42802074    -0.17400
C1558       C  0.61210493  0.84853852  0.33758256    -0.17400
H1559       H  0.59065043  0.57017796  0.36031259     0.15500
H1560       H  0.60463866  0.56978787  0.40829733     0.15500
H1561       H  0.57867463  0.94086900  0.35883698     0.15500
H1562       H  0.57756890  0.93994116  0.40748680     0.15500
H1563       H  0.13068882  0.70746007  0.28843373     0.13800
H1564       H  0.12927581  0.80558775  0.28901484     0.13800
H1565       H  0.61863797  0.71010986  0.47712295     0.13800
H1566       H  0.61291944  0.80647576  0.47702334     0.13800
H1567       H  0.63468949  0.71594058  0.38258794     0.27000
H1568       H  0.63468892  0.80102133  0.38278321     0.27000
O1569       O  0.75994676  0.89420813  0.48469811    -0.79300
O1570       O  0.77951794  0.58865430  0.53924325    -0.79300
O1571       O  0.78716463  0.53610957  0.45469470    -0.79300
O1572       O  0.81653396  0.92658754  0.54124592    -0.79200
O1573       O  0.80147633  0.57060198  0.49124542    -0.79400
O1574       O  0.75539762  0.87556789  0.53372490    -0.79300
O1575       O  0.82958926  0.52650676  0.54198323    -0.79300
O1576       O  0.81385439  0.95612110  0.48313102    -0.79300
C1577       C  0.80174842  0.91117048  0.47865059     1.10400
C1578       C  0.81925651  0.57082616  0.54728275     1.10300
C1579       C  0.80674396  0.57048947  0.46748125     1.10500
C1580       C  0.79731445  0.88408435  0.54311911     1.10300
O1581       O  0.66561813  0.92944950  0.53801385    -0.79300
O1582       O  0.71989323  0.61982502  0.50231851    -0.79300
O1583       O  0.72194536  0.96369071  0.46013619    -0.79300
O1584       O  0.73316276  0.53207823  0.56618806    -0.79200
O1585       O  0.68308413  0.55148877  0.53535406    -0.79300
O1586       O  0.66531707  0.94457609  0.48662444    -0.79300
O1587       O  0.72466364  0.93567396  0.56604082    -0.79200
O1588       O  0.70332151  0.55550776  0.47787343    -0.79300
Co1589     Co  0.71226680  0.91596772  0.51089695     1.51500
Co1590     Co  0.73922830  0.55563443  0.51272756     1.51700
Co1591     Co  0.76227627  0.50501547  0.48302645     1.51600
Co1592     Co  0.77782785  0.47958443  0.55180216     1.51500
O1593       O  0.74770226  0.48159801  0.51737873    -1.41200
C1594       C  0.68186780  0.92182255  0.55968266     1.10400
C1595       C  0.70061687  0.60296169  0.48263004     1.10500
C1596       C  0.67990289  0.94690680  0.46450076     1.10400
C1597       C  0.69384449  0.55230601  0.55823514     1.10400
N1598       N  0.85008009  0.74091693  0.68823433    -0.35700
N1599       N  0.85010092  0.66358305  0.64995522    -0.56300
N1600       N  0.84882602  0.73781751  0.61178770    -0.35700
N1601       N  0.85195214  0.81528250  0.64780117    -0.56300
C1602       C  0.86642434  0.70082697  0.70114568     0.27900
C1603       C  0.86588035  0.78255529  0.70026427     0.27900
C1604       C  0.85962273  0.69614989  0.59887243     0.27900
C1605       C  0.86155270  0.77685611  0.59761779     0.27900
C1606       C  0.84382925  0.63563376  0.67036674     0.36500
C1607       C  0.83681652  0.63478531  0.63039395     0.36500
C1608       C  0.84452259  0.84473592  0.66782259     0.36500
C1609       C  0.84185624  0.84319766  0.62755022     0.36500
C1610       C  0.89118447  0.71730173  0.72214245    -0.21000
C1611       C  0.89081239  0.76877816  0.72160465    -0.21000
C1612       C  0.88040719  0.70874445  0.57640399    -0.21000
C1613       C  0.88243266  0.75986925  0.57581586    -0.21000
C1614       C  0.82737964  0.58843184  0.66374536    -0.22100
C1615       C  0.82200974  0.58819097  0.63837194    -0.22100
C1616       C  0.82990333  0.89180860  0.66027432    -0.22100
C1617       C  0.82753943  0.89066187  0.63479328    -0.22100
C1618       C  0.86000167  0.64993541  0.69422605    -0.17400
C1619       C  0.85912643  0.83248314  0.69223132    -0.17400
C1620       C  0.84870254  0.82665821  0.60278931    -0.17400
C1621       C  0.84321526  0.64852351  0.60545139    -0.17400
H1622       H  0.90847479  0.69462213  0.73618537     0.15500
H1623       H  0.90786538  0.79322610  0.73515742     0.15500
H1624       H  0.89190150  0.68417499  0.56161744     0.15500
H1625       H  0.89574749  0.78198881  0.56058934     0.15500
H1626       H  0.82101838  0.55722382  0.67591550     0.13800
H1627       H  0.81106139  0.55661655  0.62702506     0.13800
H1628       H  0.82289456  0.92396387  0.67196215     0.13800
H1629       H  0.81769142  0.92168368  0.62309043     0.13800
H1630       H  0.82785216  0.74012816  0.67251303     0.27000
H1631       H  0.82618125  0.73932541  0.62722283     0.27000
N1632       N  0.65172169  0.72902773  0.61551533    -0.35700
N1633       N  0.63501407  0.65827676  0.65507444    -0.56300
N1634       N  0.61125357  0.74020069  0.68914576    -0.35700
N1635       N  0.63056014  0.81146884  0.64985081    -0.56300
C1636       C  0.66717115  0.68668590  0.60404865     0.27900
C1637       C  0.66581812  0.76806623  0.60142525     0.27900
C1638       C  0.59058025  0.70123600  0.70101364     0.27900
C1639       C  0.59204044  0.78234584  0.69907947     0.27900
C1640       C  0.65073261  0.62536941  0.63783493     0.36500
C1641       C  0.62443625  0.63148901  0.67540468     0.36500
C1642       C  0.64674756  0.83876966  0.63064799     0.36500
C1643       C  0.62369181  0.84381630  0.66882367     0.36500
C1644       C  0.68994728  0.69915209  0.58203227    -0.22800
C1645       C  0.68877189  0.75014656  0.58030300    -0.21000
C1646       C  0.55882727  0.71895270  0.71899653    -0.21000
C1647       C  0.55988914  0.77009191  0.71783242    -0.21000
C1648       C  0.65104699  0.57753467  0.64747449    -0.22100
C1649       C  0.63450459  0.58143679  0.67124856    -0.22100
C1650       C  0.65042105  0.88862400  0.63758594    -0.22100
C1651       C  0.63580117  0.89177831  0.66172509    -0.22100
C1652       C  0.66417885  0.63725922  0.61337103    -0.17400
C1653       C  0.66122411  0.81956842  0.60737178    -0.17400
C1654       C  0.60248011  0.83163728  0.69172036    -0.17400
C1655       C  0.59950537  0.65008901  0.69629835    -0.17400
H1656       H  0.70753922  0.67446663  0.56890102     0.15500
H1657       H  0.70478228  0.77159612  0.56550668     0.15500
H1658       H  0.53673883  0.69728269  0.73154061     0.15500
H1659       H  0.53860719  0.79533838  0.72919498     0.15500
H1660       H  0.66108167  0.54310121  0.63823918     0.13800
H1661       H  0.62891297  0.55059105  0.68373359     0.13800
H1662       H  0.66304984  0.91959317  0.62658767     0.13800
H1663       H  0.63399200  0.92561742  0.67274223     0.13800
H1664       H  0.63131666  0.73121874  0.63156458     0.27000
H1665       H  0.63928573  0.73836083  0.67623627     0.27000
C1666       C  0.89910921  0.62838041  0.31133571     0.43300
N1667       N  0.94603573  0.59865771  0.28338927     0.02200
C1668       C  0.93159544  0.88317120  0.21048779    -0.05600
H1669       H  0.96631549  0.83417764  0.30021265     0.07700
C1670       C  0.61470049  0.93572271  0.31142774    -0.06000
Co1671     Co  0.90808343  0.99661249  0.26221449     0.74200
N1672       N  0.94941486  0.90525998  0.28415746    -0.25200
Co1673     Co  0.50805230  0.90977625  0.25746529     0.74100
C1674       C  0.59824485  0.88450403  0.31763254     0.43400
N1675       N  0.57495338  0.56947149  0.29333433     0.01800
N1676       N  0.55821522  0.91115689  0.28615462     0.01900
N1677       N  0.87055696  0.93635911  0.22003383    -0.46000
H1678       H  0.85336527  0.55571104  0.31203971     0.07700
N1679       N  0.91568258  0.93942280  0.28857574     0.02200
N1680       N  0.56889879  0.91673275  0.23240023     0.02000
C1681       C  0.63256833  0.90278509  0.20916282     0.43600
N1682       N  0.54108064  0.60278474  0.28767639    -0.24600
C1683       C  0.86997821  0.55988052  0.22065872    -0.05600
N1684       N  0.93728785  0.63876183  0.29690593    -0.45700
N1685       N  0.58638054  0.88625865  0.21473475    -0.46000
C1686       C  0.87841922  0.60505314  0.20703162     0.43400
N1687       N  0.90816263  0.94198049  0.23511900     0.02200
N1688       N  0.55518292  0.59446455  0.23493918    -0.24700
N1689       N  0.91636474  0.56094652  0.28801600    -0.25100
N1690       N  0.59122870  0.56349507  0.24052877     0.01900
H1691       H  0.55399591  0.66076278  0.21244393     0.07800
H1692       H  0.67375811  0.96921223  0.22572294     0.07800
N1693       N  0.94521894  0.91172358  0.23025719    -0.25200
N1694       N  0.58731553  0.94922526  0.29151860    -0.24800
N1695       N  0.94195639  0.58936458  0.23022110     0.02200
C1696       C  0.90289966  0.88098219  0.31488216     0.43600
C1697       C  0.54476726  0.64177847  0.30313380    -0.06100
N1698       N  0.60126551  0.95156422  0.23828766    -0.24800
H1699       H  0.64467760  0.95698189  0.31929474     0.07800
N1700       N  0.88572387  0.92562794  0.30669684    -0.46000
H1701       H  0.52291748  0.67534520  0.30228060     0.07800
C1702       C  0.62412847  0.61261114  0.21441708     0.43500
C1703       C  0.88482452  0.57631880  0.30567621    -0.05600
Co1704     Co  0.49277358  0.59612729  0.25775577     0.73800
N1705       N  0.60341962  0.58517181  0.31201779    -0.45700
C1706       C  0.88141369  0.90003041  0.20398015     0.43700
N1707       N  0.92380928  0.62214079  0.21395119    -0.45700
Co1708     Co  0.59098150  0.00707845  0.26470799     0.73900
C1709       C  0.64162598  0.94572657  0.22476938    -0.06100
C1710       C  0.94451630  0.86781976  0.29996042    -0.05600
N1711       N  0.90981157  0.55369208  0.23464811    -0.25200
N1712       N  0.56312554  0.87308536  0.30123582    -0.45900
H1713       H  0.95230832  0.85245907  0.20280465     0.07700
C1714       C  0.57292312  0.62775603  0.21875050    -0.06000
Cl1715     Cl  0.50191454  0.00129572  0.25949848    -0.49000
C1716       C  0.58579836  0.63051497  0.31927903     0.43500
H1717       H  0.83704793  0.53763671  0.22164388     0.07700
N1718       N  0.63216806  0.57254325  0.22852155    -0.45800
O1719       O  0.95928006  0.83608319  0.95123978    -0.79300
O1720       O  0.54201130  0.86070628  0.04029265    -0.79300
O1721       O  0.90333739  0.83888062  0.03427255    -0.79300
O1722       O  0.58973381  0.79240167  0.98826193    -0.79200
O1723       O  0.98037790  0.85555521  0.04199622    -0.79400
O1724       O  0.52917434  0.84497754  0.98088111    -0.79300
O1725       O  0.59699238  0.80062976  0.03715985    -0.79300
O1726       O  0.89958415  0.82833309  0.98039996    -0.79300
C1727       C  0.91687108  0.84682067  0.95951265     1.10400
C1728       C  0.58551478  0.84551308  0.04247231     1.10300
C1729       C  0.93548963  0.86273875  0.04629984     1.10500
C1730       C  0.57396881  0.83299640  0.97906127     1.10300
O1731       O  0.52974445  0.74624901  0.96261970    -0.79300
O1732       O  0.95729238  0.76688526  0.06636198    -0.79300
O1733       O  0.89321651  0.71834206  0.99339921    -0.79300
O1734       O  0.54659377  0.70567845  0.04325569    -0.79200
O1735       O  0.54010180  0.76965100  0.06864675    -0.79300
O1736       O  0.93291869  0.74707588  0.96230144    -0.79300
O1737       O  0.54251765  0.69468027  0.99265711    -0.79200
O1738       O  0.90068293  0.73510704  0.04153575    -0.79300
Co1739     Co  0.97914001  0.79814746  0.97753576     1.51500
Co1740     Co  0.00855889  0.78739638  0.04311798     1.51700
Co1741     Co  0.90535797  0.77960296  0.01216793     1.51600
Co1742     Co  0.56422511  0.74869663  0.01542347     1.51500
O1743       O  0.98039428  0.76984951  0.01022771    -1.41200
C1744       C  0.54694286  0.70544787  0.97014887     1.10400
C1745       C  0.91931719  0.74123306  0.06290650     1.10500
C1746       C  0.90199493  0.71728988  0.97090716     1.10400
C1747       C  0.55284998  0.72472655  0.06440359     1.10400
N1748       N  0.80325681  0.91511788  0.88806283    -0.35700
N1749       N  0.72683857  0.93011317  0.92602987    -0.56300
N1750       N  0.65493403  0.90671752  0.88818876    -0.35700
N1751       N  0.73131172  0.90223116  0.85025823    -0.56300
C1752       C  0.82727685  0.93543327  0.90760825     0.27900
C1753       C  0.83049095  0.92348412  0.86751599     0.27900
C1754       C  0.62778266  0.92495807  0.90710458     0.27900
C1755       C  0.63007040  0.91564703  0.86691408     0.27900
C1756       C  0.76644621  0.92846501  0.94104699     0.36500
C1757       C  0.68767544  0.92445536  0.94092222     0.36500
C1758       C  0.77160931  0.88724521  0.83778322     0.36500
C1759       C  0.69227843  0.88346636  0.83786816     0.36500
C1760       C  0.86997045  0.95757872  0.89965596    -0.21000
C1761       C  0.87162653  0.95105438  0.87432775    -0.21000
C1762       C  0.58586730  0.94689184  0.89801868    -0.21000
C1763       C  0.58808959  0.94264739  0.87262095    -0.21000
C1764       C  0.75223394  0.92517932  0.96559264    -0.22100
C1765       C  0.70228236  0.92373455  0.96551963    -0.22100
C1766       C  0.75805964  0.85808450  0.81759492    -0.22100
C1767       C  0.70781826  0.85595282  0.81755692    -0.22100
C1768       C  0.81509980  0.92785709  0.93271797    -0.17400
C1769       C  0.81972699  0.90350239  0.84349085    -0.17400
C1770       C  0.64314225  0.89578518  0.84326507    -0.17400
C1771       C  0.63904510  0.91906268  0.93235375    -0.17400
H1772       H  0.89723946  0.97613983  0.91104311     0.15500
H1773       H  0.90021315  0.96544258  0.86269220     0.15500
H1774       H  0.55744116  0.96525284  0.90854630     0.15500
H1775       H  0.56168227  0.95861009  0.86011437     0.15500
H1776       H  0.77495711  0.92393441  0.98200916     0.13800
H1777       H  0.67953614  0.92168659  0.98180204     0.13800
H1778       H  0.78175083  0.84039443  0.80418274     0.13800
H1779       H  0.68531709  0.83670679  0.80398568     0.13800
H1780       H  0.77346359  0.89107831  0.88944189     0.27000
H1781       H  0.68567008  0.88399837  0.89004179     0.27000
N1782       N  0.72446305  0.60984907  0.84244829    -0.35700
N1783       N  0.80158378  0.63971664  0.87751408    -0.56300
N1784       N  0.72734076  0.66863322  0.91258599    -0.35700
N1785       N  0.65012494  0.63532515  0.87883131    -0.56300
C1786       C  0.76465209  0.58578191  0.83381241     0.27900
C1787       C  0.68441458  0.58440747  0.83431258     0.27900
C1788       C  0.76783165  0.67558553  0.92677965     0.27900
C1789       C  0.68786272  0.67302289  0.92742447     0.27900
C1790       C  0.82816768  0.63328492  0.85675606     0.36500
C1791       C  0.82936264  0.66737100  0.89317877     0.36500
C1792       C  0.62195709  0.62952012  0.85839804     0.36500
C1793       C  0.62350684  0.66248367  0.89498719     0.36500
C1794       C  0.74990565  0.54368606  0.82064938    -0.21000
C1795       C  0.69944784  0.54293270  0.82086986    -0.21000
C1796       C  0.75367298  0.68440147  0.95107540    -0.21000
C1797       C  0.70334031  0.68263000  0.95147501    -0.21000
C1798       C  0.87312170  0.65677257  0.85924049    -0.22100
C1799       C  0.87398695  0.67815248  0.88237576    -0.22100
C1800       C  0.57735514  0.65320228  0.86155264    -0.22100
C1801       C  0.57813292  0.67365991  0.88486708    -0.22100
C1802       C  0.81383448  0.60264500  0.83668391    -0.17400
C1803       C  0.63498405  0.59946474  0.83800914    -0.17400
C1804       C  0.63867943  0.67535748  0.91916430    -0.17400
C1805       C  0.81626479  0.68021812  0.91765243    -0.17400
H1806       H  0.77293754  0.51566566  0.81215696     0.15500
H1807       H  0.67669782  0.51427832  0.81255186     0.15500
H1808       H  0.77670383  0.69339978  0.96681263     0.15500
H1809       H  0.68075541  0.68989875  0.96748466     0.15500
H1810       H  0.90249993  0.65805589  0.84593090     0.13800
H1811       H  0.90427881  0.69882043  0.89036270     0.13800
H1812       H  0.54731514  0.65570212  0.84851281     0.13800
H1813       H  0.54868224  0.69451314  0.89334224     0.13800
H1814       H  0.72425350  0.64468436  0.85115826     0.27000
H1815       H  0.72628668  0.66826594  0.89338629     0.27000
C1816       C  0.88207278  0.87346128  0.70680770     0.43300
N1817       N  0.89651319  0.93351816  0.73237098     0.02200
C1818       C  0.59423130  0.58637313  0.73283448    -0.05600
H1819       H  0.63417391  0.88206202  0.74093778     0.07700
C1820       C  0.55323449  0.89519382  0.82526499    -0.06000
Co1821     Co  0.98753317  0.98729621  0.71781168     0.74200
N1822       N  0.57405761  0.93318576  0.73502199    -0.25200
Co1823     Co  0.57537114  0.98439403  0.76440316     0.74100
C1824       C  0.60636840  0.89104708  0.82263254     0.43400
N1825       N  0.92441937  0.92997758  0.80662661     0.01800
N1826       N  0.57521480  0.92779184  0.79065098     0.01900
N1827       N  0.53665639  0.58569564  0.70271573    -0.46000
H1828       H  0.94853647  0.89261421  0.68314239     0.07700
N1829       N  0.54058711  0.93631623  0.71743193     0.02200
N1830       N  0.56407350  0.54177797  0.78996063     0.02000
C1831       C  0.59544363  0.58234325  0.82064224     0.43600
N1832       N  0.89106852  0.93364234  0.78884847    -0.24600
C1833       C  0.92566206  0.58206891  0.70133047    -0.05600
N1834       N  0.86506436  0.89666195  0.72749280    -0.45700
N1835       N  0.60362169  0.56619434  0.79741023    -0.46000
C1836       C  0.88325507  0.61023911  0.70938382     0.43400
N1837       N  0.53256041  0.54653489  0.71723941     0.02200
N1838       N  0.88407563  0.54389084  0.78741647    -0.24700
N1839       N  0.93212518  0.93522666  0.71600830    -0.25100
N1840       N  0.91456024  0.54312387  0.80655995     0.01900
H1841       H  0.81185931  0.57346984  0.78221494     0.07800
H1842       H  0.52935459  0.56358931  0.84510370     0.07800
N1843       N  0.56562887  0.54591939  0.73505667    -0.25200
N1844       N  0.53794826  0.92199297  0.80585348    -0.24800
N1845       N  0.89145826  0.54509609  0.73220490     0.02200
C1846       C  0.58341476  0.87314504  0.70695782     0.43600
C1847       C  0.84869277  0.91555956  0.79748108    -0.06100
N1848       N  0.52931051  0.54056713  0.80689685    -0.24800
H1849       H  0.53181545  0.88944991  0.84175706     0.07800
N1850       N  0.54513383  0.90145743  0.70016909    -0.46000
H1851       H  0.81360229  0.92332262  0.78902351     0.07800
C1852       C  0.85246014  0.58644347  0.81888789     0.43500
C1853       C  0.92574475  0.89931558  0.69911626    -0.05600
Co1854     Co  0.89567685  0.98785975  0.76106496     0.73800
N1855       N  0.90599377  0.91070776  0.82713247    -0.45700
C1856       C  0.57402721  0.61323220  0.71167540     0.43700
N1857       N  0.86286111  0.58457115  0.72830652    -0.45700
Co1858     Co  0.98364703  0.97968245  0.80796562     0.73900
C1859       C  0.54590279  0.56533807  0.82699106    -0.06100
C1860       C  0.60312891  0.89400330  0.73000012    -0.05600
N1861       N  0.92822863  0.54313301  0.71657415    -0.25200
N1862       N  0.61629809  0.90982588  0.80006369    -0.45900
H1863       H  0.62540939  0.59555300  0.74440507     0.07700
C1864       C  0.84503948  0.57166161  0.79316304    -0.06000
Cl1865     Cl  0.98537534  0.98358716  0.76294706    -0.49000
C1866       C  0.85787491  0.90165892  0.82333638     0.43500
H1867       H  0.94987058  0.58926941  0.68601162     0.07700
N1868       N  0.89647286  0.56772270  0.82584786    -0.45800
N1869       N  0.74912853  0.63307353  0.18639328    -0.35700
N1870       N  0.82055727  0.66001269  0.14915214    -0.56300
N1871       N  0.73803896  0.68333166  0.11565907    -0.35700
N1872       N  0.66791693  0.66463798  0.15434066    -0.56300
C1873       C  0.79117394  0.63294578  0.20004393     0.27900
C1874       C  0.71062879  0.63286964  0.20221980     0.27900
C1875       C  0.77642825  0.69699346  0.10173035     0.27900
C1876       C  0.69770730  0.70492971  0.10581123     0.27900
C1877       C  0.85162548  0.63919628  0.16577864     0.36500
C1878       C  0.84445588  0.66131508  0.12728586     0.36500
C1879       C  0.64193039  0.64087945  0.17174905     0.36500
C1880       C  0.63694116  0.67209553  0.13519291     0.36500
C1881       C  0.77897434  0.63286494  0.22495194    -0.21000
C1882       C  0.72855158  0.63281039  0.22631782    -0.21000
C1883       C  0.76016754  0.72693298  0.08247138    -0.21000
C1884       C  0.71055539  0.73190588  0.08509551    -0.21000
C1885       C  0.89576576  0.62818512  0.15453653    -0.22100
C1886       C  0.89119360  0.64208662  0.13017231    -0.22100
C1887       C  0.59443932  0.63259231  0.16331180    -0.22100
C1888       C  0.59102124  0.65362279  0.14039015    -0.22100
C1889       C  0.84015016  0.62906075  0.19078435    -0.17400
C1890       C  0.65985502  0.62983456  0.19560536    -0.17400
C1891       C  0.64909248  0.69787046  0.11367009    -0.17400
C1892       C  0.82536433  0.68128431  0.10496140    -0.17400
H1893       H  0.80388743  0.63257968  0.24059883     0.15500
H1894       H  0.70751608  0.63264724  0.24322662     0.15500
H1895       H  0.78170212  0.74318382  0.06784132     0.15500
H1896       H  0.68635555  0.75164793  0.07266671     0.15500
H1897       H  0.92765313  0.61106268  0.16283070     0.13800
H1898       H  0.91903832  0.63805917  0.11614701     0.13800
H1899       H  0.56501008  0.61309959  0.17231356     0.13800
H1900       H  0.55874259  0.65418819  0.12871189     0.13800
H1901       H  0.74659130  0.62710560  0.16719904     0.27000
H1902       H  0.73905393  0.65617532  0.12956575     0.27000
N1903       N  0.75171908  0.89328325  0.10327041    -0.35700
N1904       N  0.83160258  0.88707030  0.13873726    -0.56300
N1905       N  0.75544885  0.88586407  0.17830547    -0.35700
N1906       N  0.67740550  0.88385346  0.14324168    -0.56300
C1907       C  0.79130472  0.88235777  0.08916583     0.27900
C1908       C  0.71189051  0.87486624  0.09119618     0.27900
C1909       C  0.79702859  0.87608014  0.19130448     0.27900
C1910       C  0.71650762  0.87854169  0.19362250     0.27900
C1911       C  0.85669218  0.90362545  0.11876841     0.36500
C1912       C  0.85952035  0.89702927  0.15893073     0.36500
C1913       C  0.64897075  0.89246100  0.12325250     0.36500
C1914       C  0.64964349  0.89350803  0.16340890     0.36500
C1915       C  0.77658245  0.85618729  0.06823215    -0.21000
C1916       C  0.72683738  0.85109617  0.06959579    -0.21000
C1917       C  0.78410390  0.86156252  0.21504831    -0.21000
C1918       C  0.73373892  0.86345019  0.21652568    -0.21000
C1919       C  0.90066623  0.92443242  0.12632321    -0.22100
C1920       C  0.90268545  0.91985881  0.15171462    -0.22100
C1921       C  0.60263826  0.90715005  0.13074154    -0.22100
C1922       C  0.60320117  0.90822259  0.15620248    -0.22100
C1923       C  0.84010709  0.89760230  0.09400150    -0.17400
C1924       C  0.66243315  0.88118224  0.09861651    -0.17400
C1925       C  0.66609845  0.88848848  0.18810885    -0.17400
C1926       C  0.84615910  0.88679091  0.18376209    -0.17400
H1927       H  0.79940324  0.84133740  0.05362867     0.15500
H1928       H  0.70476748  0.83137738  0.05608043     0.15500
H1929       H  0.80864382  0.85227675  0.23012100     0.15500
H1930       H  0.71223376  0.85538296  0.23277455     0.15500
H1931       H  0.92796479  0.94217104  0.11497176     0.13800
H1932       H  0.93206812  0.93316264  0.16353115     0.13800
H1933       H  0.57155487  0.91584548  0.11905073     0.13800
H1934       H  0.57280201  0.91832467  0.16793701     0.13800
H1935       H  0.75140141  0.91634540  0.11889203     0.27000
H1936       H  0.75449940  0.90320416  0.16118378     0.27000
C1937       C  0.58252734  0.69735687  0.08260541    -0.15600
C1938       C  0.60933690  0.72216680  0.09951889    -0.30700
H1939       H  0.58811061  0.65754641  0.07995913     0.13500
H1940       H  0.60680375  0.76244423  0.10099535     0.14000
C1941       C  0.89554253  0.72070656  0.08496172    -0.15600
C1942       C  0.85794858  0.68896148  0.08346652    -0.30700
H1943       H  0.90669587  0.73538887  0.10294998     0.13500
H1944       H  0.84543308  0.67587640  0.06541370     0.14000
C1945       C  0.62039578  0.87515110  0.05702316    -0.15600
C1946       C  0.62168253  0.86704173  0.08153631    -0.30700
H1947       H  0.64856961  0.89645144  0.04777710     0.13500
H1948       H  0.59158736  0.84641331  0.08965101     0.14000
C1949       C  0.87222823  0.90366048  0.07148447    -0.15600
C1950       C  0.91925944  0.88872663  0.06935785    -0.30700
H1951       H  0.85292717  0.91032050  0.05416141     0.13500
H1952       H  0.94116273  0.88169758  0.08573541     0.14000
C1953       C  0.60929563  0.86155057  0.96422050    -0.15600
C1954       C  0.59977098  0.90073596  0.94940963    -0.30700
H1955       H  0.64567852  0.84531191  0.96374207     0.13500
H1956       H  0.56254128  0.91429064  0.94752010     0.14000
C1957       C  0.88564132  0.87576641  0.94284154    -0.15600
C1958       C  0.85373335  0.91050833  0.95027367    -0.30700
H1959       H  0.88801924  0.86594251  0.92332978     0.13500
H1960       H  0.85193398  0.91981794  0.96982089     0.14000
C1961       C  0.60228977  0.69978682  0.93527413    -0.15600
C1962       C  0.57953017  0.67645324  0.95390858    -0.30700
H1963       H  0.59427103  0.73862512  0.93129029     0.13500
H1964       H  0.58868686  0.63816601  0.95844172     0.14000
C1965       C  0.85422717  0.70508499  0.93323084    -0.15600
C1966       C  0.87159934  0.68593390  0.95443991    -0.30700
H1967       H  0.86770047  0.74097463  0.92695325     0.13500
H1968       H  0.85710554  0.65095922  0.96130051     0.14000
C1969       C  0.84652434  0.59697393  0.56690537    -0.15600
C1970       C  0.82139400  0.61729713  0.58568878    -0.30700
H1971       H  0.88622425  0.59682875  0.56698283     0.13500
H1972       H  0.78198809  0.61317589  0.58618567     0.14000
C1973       C  0.81732820  0.84752108  0.56068352    -0.15600
C1974       C  0.84082833  0.86181746  0.58169340    -0.30700
H1975       H  0.80426614  0.80941320  0.55878636     0.13500
H1976       H  0.84915273  0.90105146  0.58452692     0.14000
C1977       C  0.68304189  0.59552134  0.59788705    -0.15600
C1978       C  0.66552771  0.58449456  0.57516187    -0.30700
H1979       H  0.71366187  0.57457253  0.60539162     0.13500
H1980       H  0.63427291  0.60479664  0.56789664     0.14000
C1981       C  0.68237415  0.85547327  0.58973807    -0.15600
C1982       C  0.65576108  0.88829443  0.57653426    -0.30700
H1983       H  0.72184616  0.85398272  0.58755902     0.13500
H1984       H  0.61607694  0.88780373  0.57705011     0.14000
C1985       C  0.64584329  0.62816877  0.44720807    -0.15600
C1986       C  0.67924110  0.63885492  0.46495520    -0.30700
H1987       H  0.63310827  0.58999596  0.44560781     0.13500
H1988       H  0.69432335  0.67620565  0.46615209     0.14000
C1989       C  0.61869501  0.88840654  0.44716707    -0.15600
C1990       C  0.65342059  0.92306647  0.44384364    -0.30700
H1991       H  0.60335154  0.88395485  0.46548106     0.13500
H1992       H  0.67059087  0.92605064  0.42580734     0.14000
C1993       C  0.83232709  0.61165135  0.45517866    -0.15600
C1994       C  0.82365665  0.61960904  0.43108043    -0.30700
H1995       H  0.85403540  0.63790040  0.46601586     0.13500
H1996       H  0.80168199  0.59304178  0.42052272     0.14000
C1997       C  0.83225447  0.87954546  0.46274624    -0.15600
C1998       C  0.82684690  0.88323072  0.43807123    -0.30700
H1999       H  0.85017642  0.84729375  0.47075966     0.13500
H2000       H  0.80781417  0.91550015  0.43062876     0.14000
loop_ 
_geom_bond_atom_site_label_1 
_geom_bond_atom_site_label_2 
_geom_bond_distance 
_geom_bond_site_symmetry_2 
_ccdc_geom_bond_type 
N1            C6   1.353       .  A
N1            C5   1.356       .  A
N1           H33   1.042       .  S
N2            C9   1.348       .  A
N2           C10   1.351       .  A
N3            C8   1.358       .  A
N3            C7   1.360       .  A
N3           H34   1.039       .  S
N4           C11   1.353       .  A
N4           C12   1.353       .  A
C5           C13   1.386       .  A
C5           C21   1.415       .  A
C6           C22   1.419       .  A
C6           C14   1.389       .  A
C7           C15   1.387       .  A
C7           C24   1.426       .  A
C8           C23   1.427       .  A
C8           C16   1.388       .  A
C9           C21   1.405       .  A
C9           C17   1.385       .  A
C10          C24   1.408       .  A
C10          C18   1.387       .  A
C11          C19   1.387       .  A
C11          C22   1.413       .  A
C12          C20   1.386       .  A
C12          C23   1.413       .  A
C13          C14   1.377       .  A
C13          H25   1.082       .  S
C14          H26   1.082       .  S
C15          C16   1.379       .  A
C15          H27   1.082       .  S
C16          H28   1.083       .  S
C17          C18   1.370       .  A
C17          H29   1.083       .  S
C18          H30   1.081       .  S
C19          C20   1.374       .  A
C19          H31   1.082       .  S
C20          H32   1.082       .  S
C21         C494   1.484       .  S
C22         C498   1.493       .  S
C23         C196   1.491       .  S
C24         C166   1.493       .  S
N35          C40   1.357       .  A
N35          C39   1.353       .  A
N35          H67   1.039       .  S
N36          C43   1.358       .  A
N36          C44   1.359       .  A
N37          C42   1.355       .  A
N37          C41   1.358       .  A
N37          H68   1.038       .  S
N38          C45   1.353       .  A
N38          C46   1.352       .  A
C39          C47   1.384       .  A
C39          C55   1.413       .  A
C40          C56   1.424       .  A
C40          C48   1.390       .  A
C41          C49   1.388       .  A
C41          C58   1.420       .  A
C42          C57   1.422       .  A
C42          C50   1.386       .  A
C43          C55   1.427       .  A
C43          C51   1.385       .  A
C44          C58   1.432       .  A
C44          C52   1.389       .  A
C45          C53   1.386       .  A
C45          C56   1.421       .  A
C46          C54   1.387       .  A
C46          C57   1.416       .  A
C47          C48   1.379       .  A
C47          H59   1.081       .  S
C48          H60   1.081       .  S
C49          C50   1.372       .  A
C49          H61   1.081       .  S
C50          H62   1.082       .  S
C51          C52   1.373       .  A
C51        H1063   1.082       .  S
C52        H1064   1.082       .  S
C53          C54   1.371       .  A
C53          H65   1.082       .  S
C54          H66   1.081       .  S
C55         C216   1.497       .  S
C56         C485   1.510       .  S
C57         C489   1.503       .  S
C58         C174   1.501       .  S
H63        C1051   1.082       .  S
H64        C1052   1.082       .  S
O69          C77   1.275       .  A
O69         Co89   2.010       .  S
O70          C78   1.260       .  A
O70         Co90   1.987       .  S
O71          C79   1.264       .  A
O71         Co91   1.880       .  S
O72          C80   1.263       .  A
O72        Co592   1.967       .  S
O73          C79   1.297       .  A
O73         Co90   2.121       .  S
O74          C80   1.270       .  A
O74         Co89   2.020       .  S
O75          C78   1.263       .  A
O75         Co92   1.977   1_545  S
O76          C77   1.272       .  A
O76        Co591   1.978       .  S
C77         C497   1.466       .  S
C78         C469   1.470       .  S
C79         C493   1.476       .  S
C80         C473   1.479       .  S
O81          C94   1.268       .  A
O81         Co89   1.980       .  S
O82          C95   1.263       .  A
O82         Co90   1.884       .  S
O83          C96   1.257       .  A
O83        Co591   1.976       .  S
O84          C97   1.273       .  A
O84         Co92   1.998   1_545  S
O85          C97   1.272       .  A
O85         Co90   1.986       .  S
O86          C96   1.265       .  A
O86         Co89   1.994       .  S
O87          C94   1.272       .  A
O87        Co592   2.004       .  S
O88          C95   1.298       .  A
O88         Co91   2.126       .  S
Co89        O593   2.055       .  S
Co90         O93   2.016   1_545  S
Co91        O576   1.984   1_545  S
Co91        O583   1.977   1_545  S
Co91         O93   2.014   1_545  S
Co92        O572   1.961       .  S
Co92        O587   2.007       .  S
Co92         O93   2.057       .  S
O93        Co589   2.058       .  S
C94         C482   1.478       .  S
C95         C486   1.476       .  S
C96         C490   1.472       .  S
C97         C478   1.481       .  S
N98         C103   1.358       .  A
N98         C102   1.359       .  A
N98         H130   1.041       .  S
N99         C106   1.353       .  A
N99         C107   1.357       .  A
N100        C105   1.352       .  A
N100        C104   1.349       .  A
N100        H131   1.043       .  S
N101        C108   1.350       .  A
N101        C109   1.356       .  A
C102        C110   1.388       .  A
C102        C118   1.424       .  A
C103        C119   1.422       .  A
C103        C111   1.387       .  A
C104        C112   1.388       .  A
C104        C121   1.412       .  A
C105        C120   1.408       .  A
C105        C113   1.384       .  A
C106        C118   1.418       .  A
C106        C114   1.386       .  A
C107        C121   1.421       .  A
C107        C115   1.387       .  A
C108        C116   1.387       .  A
C108        C119   1.412       .  A
C109        C117   1.386       .  A
C109        C120   1.416       .  A
C110        C111   1.380       .  A
C110        H122   1.082       .  S
C111        H123   1.082       .  S
C112        C113   1.375       .  A
C112        H124   1.082       .  S
C113        H125   1.082       .  S
C114        C115   1.378       .  A
C114        H126   1.083       .  S
C115        H127   1.081       .  S
C116        C117   1.374       .  A
C116        H128   1.083       .  S
C117        H129   1.081       .  S
C118        C336   1.492       .  S
C119        C316   1.485       .  S
C120        C474   1.500       .  S
C121        C470   1.505       .  S
N132        C137   1.357       .  A
N132        C136   1.356       .  A
N132        H164   1.038       .  S
N133        C140   1.353       .  A
N133        C141   1.352       .  A
N134        C139   1.357       .  A
N134        C138   1.356       .  A
N134        H165   1.038       .  S
N135        C142   1.351       .  A
N135        C143   1.351       .  A
C136        C144   1.388       .  A
C136        C152   1.418       .  A
C137        C153   1.419       .  A
C137        C145   1.388       .  A
C138        C146   1.388       .  A
C138        C155   1.418       .  A
C139        C154   1.418       .  A
C139        C147   1.388       .  A
C140        C152   1.413       .  A
C140        C148   1.387       .  A
C141        C155   1.414       .  A
C141        C149   1.388       .  A
C142        C150   1.386       .  A
C142        C153   1.410       .  A
C143        C151   1.388       .  A
C143        C154   1.414       .  A
C144        C145   1.373       .  A
C144        H156   1.083       .  S
C145        H157   1.083       .  S
C146        C147   1.373       .  A
C146        H158   1.083       .  S
C147        H159   1.082       .  S
C148        C149   1.365       .  A
C148        H160   1.083       .  S
C149        H161   1.082       .  S
C150        C151   1.368       .  A
C150        H162   1.083       .  S
C151        H163   1.082       .  S
C152        C477   1.485       .  S
C153        C481   1.481       .  S
C154        C346   1.478       .  S
C155        C356   1.478       .  S
C166        N184   1.340       .  A
C166        C203   1.480       .  S
N167        N184   1.320       .  A
N167        N189   1.323       .  A
N167      Co1204   2.070       .  S
C168        N193   1.361       .  A
C168        H213   1.081       .  S
C168        C206   1.488       .  S
H169        C210   1.082       .  S
C170        N194   1.358       .  A
C170        H199   1.081       .  S
C170        C174   1.485       .  S
Co171       N179   2.121       .  S
Co171       N187   2.068       .  S
Co171       N689   2.122       .  S
Co171       N711   2.065       .  S
Co171     Cl1215   2.450       .  S
N172        C210   1.330       .  A
N172        N179   1.321       .  A
N172      Co1173   2.063       .  S
Co173       N176   2.068       .  S
Co173       N180   2.144       .  S
Co173      N1172   2.075   1_455  S
Co173      N1193   2.141   1_455  S
Co173      Cl215   2.455       .  S
C174        N212   1.338       .  A
N175        N182   1.323       .  A
N175        N205   1.335       .  A
N175       Co708   2.114       .  S
N176        N194   1.323       .  A
N176        N212   1.318       .  A
N177        C206   1.337       .  A
N177        N187   1.318       .  A
H178        C203   1.081       .  S
N179        N200   1.336       .  A
N180        N198   1.322       .  A
N180        N185   1.337       .  A
C181        N185   1.371       .  A
C181        C209   1.436       .  S
C181        C425   1.490       .  S
N182        C197   1.333       .  A
N182       Co204   2.085   1_455  S
C183        N211   1.331       .  A
C183        H217   1.082       .  S
C183        C186   1.433       .  S
C186        N207   1.373       .  A
C186        C389   1.500       .  S
N187        N193   1.323       .  A
N188        C214   1.350       .  A
N188        N190   1.325       .  A
N188       Co204   2.110   1_455  S
N189        C203   1.352       .  A
N189       Co671   2.121   1_545  S
N190        N218   1.320       .  A
N190       Co708   2.076       .  S
H191        C214   1.082       .  S
H192        C209   1.082       .  S
N193      Co1173   2.140       .  S
N194       Co208   2.130       .  S
N195        N207   1.341       .  A
N195        N211   1.321       .  A
N195      Co1204   2.157       .  S
C196        N200   1.365       .  A
C196        C210   1.439       .  S
C197        H201   1.082       .  S
C197        C216   1.449       .  S
N198        C209   1.330       .  A
N198       Co208   2.050       .  S
C202        N218   1.340       .  A
C202        C214   1.477       .  S
C202        C390   1.490       .  S
Co204      N1167   2.056       .  S
Co204      N1195   2.158       .  S
Co204      Cl715   2.455       .  S
N205        C216   1.362       .  A
C206        C426   1.501       .  S
Co208       N675   2.105       .  S
Co208       N690   2.081       .  S
Co208      Cl215   2.455       .  S
N211       Co671   2.046   1_545  S
Cl215     Co1171   2.444   1_455  S
Cl215      Co704   2.458       .  S
O219        C227   1.276       .  A
O219       Co239   1.879       .  S
O220        C228   1.277       .  A
O220      Co1240   1.882   1_455  S
O221        C229   1.274       .  A
O221       Co241   1.999       .  S
O222        C230   1.242       .  A
O222       Co242   1.950   1_556  S
O223        C229   1.265       .  A
O223       Co240   2.002       .  S
O224        C230   1.262       .  A
O224      Co1239   2.020   1_455  S
O225        C228   1.284       .  A
O225       Co242   2.032       .  S
O226        C227   1.311       .  A
O226       Co241   2.111   1_556  S
C227        C457   1.471       .  S
C228        C445   1.446       .  S
C229        C450   1.485       .  S
C230        C453   1.478       .  S
O231        C244   1.273       .  A
O231      Co1239   1.882   1_455  S
O232        C245   1.266       .  A
O232       Co240   1.842       .  S
O233        C246   1.275   1_554  A
O233       Co241   1.915       .  S
O234        C247   1.243       .  A
O234       Co242   1.949       .  S
O235        C247   1.263       .  A
O235      Co1240   2.014   1_455  S
O236        C246   1.298       .  A
O236       Co239   2.077       .  S
O237        C244   1.287       .  A
O237       Co242   2.035   1_556  S
O238        C245   1.306       .  A
O238       Co241   2.122       .  S
Co239      O1224   2.034       .  S
Co239      O1231   1.946       .  S
Co239       O243   2.005   1_556  S
Co240      O1220   2.006       .  S
Co240      O1235   1.965       .  S
Co240       O243   1.884       .  S
Co241       O243   2.039       .  S
Co242      O1243   2.096   1_455  S
O243      Co1242   2.030       .  S
C244        C462   1.433       .  S
C245        C441   1.454       .  S
C246        C466   1.489       .  S
C247        C437   1.467       .  S
N248        C253   1.353       .  A
N248        C252   1.356       .  A
N248        H280   1.038       .  S
N249        C256   1.352       .  A
N249        C257   1.352       .  A
N250        C255   1.356       .  A
N250        C254   1.359       .  A
N250        H281   1.042       .  S
N251        C258   1.363       .  A
N251        C259   1.360       .  A
C252        C260   1.388       .  A
C252        C268   1.420       .  A
C253        C269   1.418       .  A
C253        C261   1.387       .  A
C254        C262   1.383       .  A
C254        C271   1.418       .  A
C255        C270   1.418       .  A
C255        C263   1.387       .  A
C256        C268   1.413       .  A
C256        C264   1.386       .  A
C257        C271   1.417       .  A
C257        C265   1.389       .  A
C258        C266   1.382       .  A
C258        C269   1.431       .  A
C259        C267   1.385       .  A
C259        C270   1.430       .  A
C260        C261   1.374       .  A
C260        H272   1.081       .  S
C261        H273   1.082       .  S
C262        C263   1.373       .  A
C262        H274   1.082       .  S
C263        H275   1.080       .  S
C264        C265   1.367       .  A
C264        H276   1.083       .  S
C265        H277   1.081       .  S
C266        C267   1.357       .  A
C266        H278   1.073       .  S
C267        H279   1.075       .  S
C268        C458   1.487       .  S
C269        C366   1.509       .  S
C270        C324   1.521       .  S
C271        C454   1.502       .  S
N282        C287   1.363       .  A
N282        C286   1.348       .  A
N282        H314   1.042       .  S
N283        C290   1.355       .  A
N283        C291   1.359       .  A
N284        C289   1.353       .  A
N284        C288   1.360       .  A
N284        H315   1.040       .  S
N285        C292   1.347       .  A
N285        C293   1.339       .  A
C286        C294   1.385       .  A
C286        C302   1.415       .  A
C287        C303   1.425       .  A
C287        C295   1.388       .  A
C288        C296   1.389       .  A
C288        C305   1.422       .  A
C289        C304   1.416       .  A
C289        C297   1.384       .  A
C290        C302   1.425       .  A
C290        C298   1.389       .  A
C291        C305   1.427       .  A
C291        C299   1.385       .  A
C292        C300   1.385       .  A
C292        C303   1.400       .  A
C293        C301   1.390       .  A
C293        C304   1.399       .  A
C294        C295   1.378       .  A
C294        H306   1.081   1_545  S
C295        H307   1.081   1_545  S
C296        C297   1.365       .  A
C296        H308   1.080       .  S
C297        H309   1.081       .  S
C298        C299   1.373       .  A
C298        H310   1.077       .  S
C299        H311   1.081       .  S
C300        C301   1.365       .  A
C300        H312   1.081       .  S
C301        H313   1.082       .  S
C302        C352   1.502       .  S
C303        C331   1.494       .  S
C304        C461   1.460       .  S
C305        C465   1.517       .  S
C316        N334   1.356       .  A
C316        C353   1.452       .  S
N317        N334   1.332       .  A
N317        N339   1.318       .  A
N317       Co354   2.105       .  S
C318        N343   1.347       .  A
C318        H363   1.081       .  S
C318        C356   1.465       .  S
H319        C360   1.082       .  S
C320        N344   1.350       .  A
C320        H349   1.080       .  S
C320        C324   1.479       .  S
Co321       N339   2.070       .  S
Co321      N1329   2.069       .  S
Co321       N861   2.066       .  S
Co321      N1837   2.068       .  S
Co321      Cl365   2.448       .  S
N322        C360   1.344       .  A
N322        N329   1.317       .  A
N322       Co323   2.081       .  S
Co323       N326   2.081       .  S
Co323       N843   2.086       .  S
Co323       N830   2.066       .  S
Co323     Cl1365   2.439   1_455  S
C324        N362   1.345       .  A
N325        N332   1.319       .  A
N325        N355   1.324       .  A
N325       Co358   2.083       .  S
N326        N344   1.321       .  A
N326        N362   1.318       .  A
N327        C356   1.345       .  A
N327        N337   1.319       .  A
H328        C353   1.081       .  S
N329        N350   1.321       .  A
N329      Co1321   2.073   1_455  S
N330        N348   1.323       .  A
N330        N335   1.323       .  A
N330       Co823   2.054   1_545  S
C331        N335   1.343       .  A
C331        C359   1.471       .  S
N332        C347   1.340       .  A
N332       Co354   2.095       .  S
C333        N361   1.333       .  A
C333        H367   1.081       .  S
C333        C336   1.446       .  S
C336        N357   1.363       .  A
N337        N343   1.317       .  A
N337      Co1821   2.061   1_445  S
N338        C364   1.342       .  A
N338        N340   1.327       .  A
N338       Co854   2.096   1_545  S
N339        C353   1.335       .  A
N340        N368   1.323       .  A
N340       Co858   2.091   1_545  S
H341        C364   1.081       .  S
H342        C359   1.082       .  S
N343       Co823   2.095   1_545  S
N344      Co1358   2.105   1_455  S
N345        N357   1.336       .  A
N345        N361   1.318       .  A
N345       Co854   2.128   1_545  S
C346        N350   1.347       .  A
C346        C360   1.461       .  S
C347        H351   1.081       .  S
C347        C366   1.469       .  S
N348        C359   1.345       .  A
N348      Co1858   2.119   1_445  S
C352        N368   1.347       .  A
C352        C364   1.467       .  S
Co354       N838   2.105       .  S
Co354       N845   2.122       .  S
Co354      Cl365   2.447       .  S
N355        C366   1.355       .  A
Co358       N840   2.113       .  S
Co358      N1344   2.109       .  S
Co358      N1848   2.116       .  S
Co358      Cl365   2.452       .  S
N361       Co821   2.057   1_545  S
Cl365     Co1323   2.456       .  S
N369        C374   1.357       .  A
N369        C373   1.365       .  A
N369        H401   1.038       .  S
N370        C377   1.349       .  A
N370        C378   1.347       .  A
N371        C376   1.354       .  A
N371        C375   1.349       .  A
N371        H402   1.043       .  S
N372        C379   1.350       .  A
N372        C380   1.352       .  A
C373        C381   1.387       .  A
C373        C389   1.434       .  A
C374        C390   1.431       .  A
C374        C382   1.388       .  A
C375        C383   1.388       .  A
C375        C392   1.409       .  A
C376        C391   1.414       .  A
C376        C384   1.386       .  A
C377        C389   1.405       .  A
C377        C385   1.385       .  A
C378        C392   1.411       .  A
C378        C386   1.388       .  A
C379        C387   1.390       .  A
C379        C390   1.413       .  A
C380        C388   1.382       .  A
C380        C391   1.404       .  A
C381        C382   1.384       .  A
C381        H393   1.082       .  S
C382        H394   1.082       .  S
C383        C384   1.377       .  A
C383        H395   1.083       .  S
C384        H396   1.081       .  S
C385        C386   1.374       .  A
C385        H397   1.082       .  S
C386        H398   1.082       .  S
C387        C388   1.370       .  A
C387        H399   1.080       .  S
C388        H400   1.083       .  S
C391        C438   1.492       .  S
C392        C442   1.484       .  S
N403        C408   1.354       .  A
N403        C407   1.355       .  A
N403        H435   1.042       .  S
N404        C411   1.360       .  A
N404        C412   1.358       .  A
N405        C410   1.365       .  A
N405        C409   1.356       .  A
N405        H436   1.038       .  S
N406        C413   1.338       .  A
N406        C414   1.344       .  A
C407        C415   1.389       .  A
C407        C423   1.416       .  A
C408        C424   1.414       .  A
C408        C416   1.387       .  A
C409        C417   1.389       .  A
C409        C426   1.431       .  A
C410        C425   1.432       .  A
C410        C418   1.385       .  A
C411        C423   1.429       .  A
C411        C419   1.386       .  A
C412        C426   1.424       .  A
C412        C420   1.386       .  A
C413        C421   1.387       .  A
C413        C424   1.387       .  A
C414        C422   1.387       .  A
C414        C425   1.399       .  A
C415        C416   1.372       .  A
C415        H427   1.082       .  S
C416        H428   1.082       .  S
C417        C418   1.382       .  A
C417        H429   1.083       .  S
C418        H430   1.082       .  S
C419        C420   1.379       .  A
C419        H431   1.082       .  S
C420        H432   1.082       .  S
C421        C422   1.368       .  A
C421        H433   1.083       .  S
C422        H434   1.081       .  S
C423        C449   1.512       .  S
C424        C446   1.457       .  S
C437        C438   1.342       .  D
C437        H439   1.086       .  S
C438        H440   1.088       .  S
C441        C442   1.337       .  D
C441        H443   1.084       .  S
C442        H444   1.087       .  S
C445        C446   1.322       .  D
C445        H447   1.087       .  S
C446        H448   1.088       .  S
C449        C450   1.340       .  D
C449        H451   1.086       .  S
C450        H452   1.085       .  S
C453        C454   1.349       .  D
C453        H455   1.085       .  S
C454        H456   1.085       .  S
C457        C458   1.336       .  D
C457        H459   1.087       .  S
C458        H460   1.087       .  S
C461        C462   1.325       .  D
C461        H463   1.088       .  S
C462        H464   1.088       .  S
C465        C466   1.357       .  D
C465        H467   1.081       .  S
C466        H468   1.086       .  S
C469        C470   1.352       .  D
C469        H471   1.086       .  S
C470        H472   1.085       .  S
C473        C474   1.351       .  D
C473        H475   1.087       .  S
C474        H476   1.086       .  S
C477        C478   1.351       .  D
C477        H479   1.087       .  S
C478        H480   1.086       .  S
C481        C482   1.348       .  D
C481        H483   1.087       .  S
C482        H484   1.086       .  S
C485        C486   1.349       .  D
C485        H487   1.085       .  S
C486        H488   1.085       .  S
C489        C490   1.344       .  D
C489        H491   1.083       .  S
C490        H492   1.086       .  S
C493        C494   1.345       .  D
C493        H495   1.086       .  S
C494        H496   1.088       .  S
C497        C498   1.345       .  D
C497        H499   1.086       .  S
C498        H500   1.088       .  S
N501        C506   1.357       .  A
N501        C505   1.357       .  A
N501        H533   1.040       .  S
N502        C509   1.349       .  A
N502        C510   1.352       .  A
N503        C508   1.357       .  A
N503        C507   1.359       .  A
N503        H534   1.038       .  S
N504        C511   1.354       .  A
N504        C512   1.356       .  A
C505        C513   1.384       .  A
C505        C521   1.417       .  A
C506        C522   1.424       .  A
C506        C514   1.389       .  A
C507        C515   1.388       .  A
C507        C524   1.426       .  A
C508        C523   1.423       .  A
C508        C516   1.387       .  A
C509        C521   1.407       .  A
C509        C517   1.386       .  A
C510        C524   1.408       .  A
C510        C518   1.386       .  A
C511        C519   1.387       .  A
C511        C522   1.417       .  A
C512        C520   1.386       .  A
C512        C523   1.416       .  A
C513        C514   1.376       .  A
C513        H525   1.081       .  S
C514        H526   1.082       .  S
C515        C516   1.378       .  A
C515        H527   1.083       .  S
C516        H528   1.083       .  S
C517        C518   1.368       .  A
C517        H529   1.083       .  S
C518        H530   1.080       .  S
C519        C520   1.375       .  A
C519        H531   1.082       .  S
C520        H532   1.082       .  S
C521        C994   1.483       .  S
C522        C998   1.498       .  S
C523        C696   1.495       .  S
C524        C666   1.490       .  S
N535        C540   1.358       .  A
N535        C539   1.353       .  A
N535        H567   1.034       .  S
N536        C543   1.356       .  A
N536        C544   1.359       .  A
N537        C542   1.355       .  A
N537        C541   1.362       .  A
N537        H568   1.039       .  S
N538        C545   1.358       .  A
N538        C546   1.354       .  A
C539        C547   1.385       .  A
C539        C555   1.418       .  A
C540        C556   1.428       .  A
C540        C548   1.391       .  A
C541        C549   1.386       .  A
C541        C558   1.422       .  A
C542        C557   1.425       .  A
C542        C550   1.388       .  A
C543        C555   1.427       .  A
C543        C551   1.387       .  A
C544        C558   1.427       .  A
C544        C552   1.387       .  A
C545        C553   1.386       .  A
C545        C556   1.430       .  A
C546        C554   1.388       .  A
C546        C557   1.424       .  A
C547        C548   1.377       .  A
C547        H559   1.081       .  S
C548        H560   1.081       .  S
C549        C550   1.375       .  A
C549        H561   1.082       .  S
C550        H562   1.082       .  S
C551        C552   1.373       .  A
C551       H1563   1.083       .  S
C552       H1564   1.082       .  S
C553        C554   1.369       .  A
C553        H565   1.082       .  S
C554        H566   1.080       .  S
C555        C716   1.492       .  S
C556        C985   1.516       .  S
C557        C989   1.502       .  S
C558        C674   1.508       .  S
H563       C1551   1.082       .  S
H564       C1552   1.082       .  S
O569        C577   1.274       .  A
O569       Co589   2.014       .  S
O570        C578   1.264       .  A
O570       Co590   2.002       .  S
O571        C579   1.264       .  A
O571       Co591   1.886       .  S
O572        C580   1.263       .  A
O573        C579   1.295       .  A
O573       Co590   2.114       .  S
O574        C580   1.272       .  A
O574       Co589   2.018       .  S
O575        C578   1.256       .  A
O575       Co592   1.977       .  S
O576        C577   1.273       .  A
C577        C997   1.474       .  S
C578        C969   1.472       .  S
C579        C993   1.476       .  S
C580        C973   1.472       .  S
O581        C594   1.267       .  A
O581       Co589   1.982       .  S
O582        C595   1.264       .  A
O582       Co590   1.884       .  S
O583        C596   1.258       .  A
O584        C597   1.277       .  A
O584       Co592   2.021       .  S
O585        C597   1.268       .  A
O585       Co590   1.974       .  S
O586        C596   1.265       .  A
O586       Co589   1.994       .  S
O587        C594   1.271       .  A
O588        C595   1.301       .  A
O588       Co591   2.134       .  S
Co590       O593   2.018       .  S
Co591       O593   2.012       .  S
Co592       O593   2.042       .  S
C594        C982   1.478       .  S
C595        C986   1.481       .  S
C596        C990   1.472       .  S
C597        C978   1.480       .  S
N598        C603   1.358       .  A
N598        C602   1.359       .  A
N598        H630   1.042       .  S
N599        C606   1.350       .  A
N599        C607   1.353       .  A
N600        C605   1.348       .  A
N600        C604   1.349       .  A
N600        H631   1.042       .  S
N601        C608   1.352       .  A
N601        C609   1.357       .  A
C602        C610   1.387       .  A
C602        C618   1.422       .  A
C603        C619   1.422       .  A
C603        C611   1.387       .  A
C604        C612   1.386       .  A
C604        C621   1.404       .  A
C605        C620   1.410       .  A
C605        C613   1.387       .  A
C606        C618   1.412       .  A
C606        C614   1.387       .  A
C607        C621   1.414       .  A
C607        C615   1.386       .  A
C608        C616   1.386       .  A
C608        C619   1.416       .  A
C609        C617   1.387       .  A
C609        C620   1.421       .  A
C610        C611   1.381       .  A
C610        H622   1.082       .  S
C611        H623   1.082       .  S
C612        C613   1.374       .  A
C612        H624   1.080       .  S
C613        H625   1.082       .  S
C614        C615   1.378       .  A
C614        H626   1.083       .  S
C615        H627   1.082       .  S
C616        C617   1.377       .  A
C616        H628   1.083       .  S
C617        H629   1.081       .  S
C618        C836   1.488       .  S
C619        C816   1.490       .  S
C620        C974   1.501       .  S
C621        C970   1.479       .  S
N632        C637   1.358       .  A
N632        C636   1.358       .  A
N632        H664   1.038       .  S
N633        C640   1.352       .  A
N633        C641   1.351       .  A
N634        C639   1.356       .  A
N634        C638   1.355       .  A
N634        H665   1.039       .  S
N635        C642   1.352       .  A
N635        C643   1.352       .  A
C636        C644   1.388       .  A
C636        C652   1.423       .  A
C637        C653   1.422       .  A
C637        C645   1.388       .  A
C638        C646   1.388       .  A
C638        C655   1.416       .  A
C639        C654   1.415       .  A
C639        C647   1.387       .  A
C640        C652   1.412       .  A
C640        C648   1.387       .  A
C641        C655   1.413       .  A
C641        C649   1.388       .  A
C642        C650   1.387       .  A
C642        C653   1.414       .  A
C643        C651   1.387       .  A
C643        C654   1.413       .  A
C644        C645   1.373       .  A
C644        H656   1.082       .  S
C645        H657   1.083       .  S
C646        C647   1.372       .  A
C646        H658   1.083       .  S
C647        H659   1.083       .  S
C648        C649   1.366       .  A
C648        H660   1.083       .  S
C649        H661   1.083       .  S
C650        C651   1.367       .  A
C650        H662   1.082       .  S
C651        H663   1.082       .  S
C652        C977   1.488       .  S
C653        C981   1.486       .  S
C654        C846   1.479       .  S
C655        C856   1.475       .  S
C666        N684   1.336       .  A
C666        C703   1.481       .  S
N667        N684   1.317       .  A
N667        N689   1.322       .  A
N667      Co1704   2.054       .  S
C668        N693   1.357       .  A
C668        H713   1.081       .  S
C668        C706   1.485       .  S
H669        C710   1.082       .  S
C670        N694   1.360       .  A
C670        H699   1.081       .  S
C670        C674   1.487       .  S
Co671       N679   2.110       .  S
Co671       N687   2.060       .  S
Co671     Cl1715   2.437   1_565  S
N672        C710   1.336       .  A
N672        N679   1.322       .  A
N672      Co1673   2.087       .  S
Co673      N1672   2.069   1_455  S
Co673       N676   2.076       .  S
Co673      N1693   2.139   1_455  S
Co673       N680   2.134       .  S
Co673      Cl715   2.458   1_465  S
C674        N712   1.341       .  A
N675        N682   1.322       .  A
N675        N705   1.334       .  A
N676        N694   1.323       .  A
N676        N712   1.321       .  A
N677        C706   1.335       .  A
N677        N687   1.314       .  A
H678        C703   1.081       .  S
N679        N700   1.334       .  A
N680        N698   1.322       .  A
N680        N685   1.338       .  A
C681        N685   1.368       .  A
C681        C709   1.446       .  S
C681        C925   1.507       .  S
N682        C697   1.331       .  A
N682       Co704   2.077       .  S
C683        N711   1.331       .  A
C683        H717   1.082       .  S
C683        C686   1.440       .  S
C686        N707   1.372       .  A
C686        C889   1.507       .  S
N687        N693   1.323       .  A
N688        C714   1.354       .  A
N688        N690   1.326       .  A
N688       Co704   2.135       .  S
N689        C703   1.353       .  A
N690        N718   1.323       .  A
H691        C714   1.082       .  S
H692        C709   1.082       .  S
N693      Co1673   2.120       .  S
N694       Co708   2.141   1_565  S
N695        N707   1.341       .  A
N695        N711   1.322       .  A
N695      Co1704   2.156       .  S
C696        N700   1.361       .  A
C696        C710   1.450       .  S
C697        H701   1.082       .  S
C697        C716   1.446       .  S
N698        C709   1.333       .  A
N698       Co708   2.072   1_565  S
C702        N718   1.341       .  A
C702        C714   1.485       .  S
C702        C890   1.505       .  S
Co704      N1667   2.062   1_455  S
Co704      N1695   2.151   1_455  S
N705        C716   1.361       .  A
C706        C926   1.495       .  S
Co708      Cl715   2.449   1_455  S
Cl715     Co1671   2.451   1_545  S
O719        C727   1.260       .  A
O719       Co739   1.856       .  S
O720        C728   1.262       .  A
O720      Co1740   1.876       .  S
O721        C729   1.259       .  A
O721       Co741   1.981       .  S
O722        C730   1.269       .  A
O722       Co742   1.988   1_556  S
O723        C729   1.265       .  A
O723       Co740   1.984       .  S
O724        C730   1.272       .  A
O724      Co1739   1.991   1_455  S
O725        C728   1.289       .  A
O725       Co742   2.116       .  S
O726        C727   1.309       .  A
O726       Co741   2.157   1_556  S
C727        C957   1.466       .  S
C728        C945   1.463       .  S
C729        C950   1.476       .  S
C730        C953   1.472       .  S
O731        C744   1.276       .  A
O731      Co1739   2.000   1_455  S
O732        C745   1.271       .  A
O732       Co740   1.995       .  S
O733        C746   1.263       .  A
O733       Co741   1.882   1_556  S
O734        C747   1.275       .  A
O734       Co742   1.872       .  S
O735        C747   1.309       .  A
O735      Co1740   2.126       .  S
O736        C746   1.299       .  A
O736       Co739   2.125       .  S
O737        C744   1.275       .  A
O737       Co742   1.989   1_556  S
O738        C745   1.280       .  A
O738       Co741   2.008       .  S
Co739      O1724   1.989       .  S
Co739      O1731   1.985       .  S
Co739       O743   2.003   1_556  S
Co740      O1720   1.964       .  S
Co740      O1735   2.025       .  S
Co740       O743   2.050       .  S
Co741       O743   1.995       .  S
Co742      O1743   1.980   1_455  S
O743      Co1742   2.034       .  S
C744        C962   1.474       .  S
C745        C941   1.480       .  S
C746        C966   1.473       .  S
C747        C937   1.475       .  S
N748        C753   1.361       .  A
N748        C752   1.353       .  A
N748        H780   1.042       .  S
N749        C756   1.350       .  A
N749        C757   1.351       .  A
N750        C755   1.357       .  A
N750        C754   1.357       .  A
N750        H781   1.043       .  S
N751        C758   1.358       .  A
N751        C759   1.355       .  A
C752        C760   1.379       .  A
C752        C768   1.414       .  A
C753        C769   1.431       .  A
C753        C761   1.393       .  A
C754        C762   1.379       .  A
C754        C771   1.409       .  A
C755        C770   1.427       .  A
C755        C763   1.392       .  A
C756        C768   1.405       .  A
C756        C764   1.386       .  A
C757        C771   1.412       .  A
C757        C765   1.386       .  A
C758        C766   1.386       .  A
C758        C769   1.425       .  A
C759        C767   1.387       .  A
C759        C770   1.423       .  A
C760        C761   1.375       .  A
C760        H772   1.083       .  S
C761        H773   1.078       .  S
C762        C763   1.377       .  A
C762        H774   1.082       .  S
C763        H775   1.079       .  S
C764        C765   1.365       .  A
C764        H776   1.080       .  S
C765        H777   1.082       .  S
C766        C767   1.379       .  A
C766        H778   1.082       .  S
C767        H779   1.082       .  S
C768        C958   1.493       .  S
C769        C866   1.520       .  S
C770        C824   1.511       .  S
C771        C954   1.504       .  S
N782        C787   1.366       .  A
N782        C786   1.364       .  A
N782        H814   1.043       .  S
N783        C790   1.356       .  A
N783        C791   1.355       .  A
N784        C789   1.359       .  A
N784        C788   1.358       .  A
N784        H815   1.035       .  S
N785        C792   1.350       .  A
N785        C793   1.348       .  A
C786        C794   1.382       .  A
C786        C802   1.432       .  A
C787        C803   1.434       .  A
C787        C795   1.382       .  A
C788        C796   1.391       .  A
C788        C805   1.429       .  A
C789        C804   1.420       .  A
C789        C797   1.385       .  A
C790        C802   1.421       .  A
C790        C798   1.387       .  A
C791        C805   1.423       .  A
C791        C799   1.388       .  A
C792        C800   1.385       .  A
C792        C803   1.405       .  A
C793        C801   1.387       .  A
C793        C804   1.408       .  A
C794        C795   1.373       .  A
C794        H806   1.077       .  S
C795        H807   1.074       .  S
C796        C797   1.370       .  A
C796        H808   1.081       .  S
C797        H809   1.083       .  S
C798        C799   1.372       .  A
C798        H810   1.081       .  S
C799        H811   1.082       .  S
C800        C801   1.368       .  A
C800        H812   1.081       .  S
C801        H813   1.082       .  S
C802        C852   1.516       .  S
C803        C831   1.510       .  S
C804        C961   1.482       .  S
C805        C965   1.500       .  S
C816        N834   1.359       .  A
C816        C853   1.449       .  S
N817        N834   1.334       .  A
N817        N839   1.320       .  A
N817       Co854   2.123       .  S
C818        N843   1.345       .  A
C818        H863   1.081       .  S
C818        C856   1.462       .  S
H819        C860   1.081       .  S
C820        N844   1.344       .  A
C820        H849   1.081       .  S
C820        C824   1.473       .  S
Co821       N839   2.070       .  S
Co821      N1829   2.068       .  S
Co821      N1337   2.062   1_565  S
Co821      Cl865   2.440       .  S
N822        C860   1.344       .  A
N822        N829   1.318       .  A
N822       Co823   2.084       .  S
Co823       N826   2.086       .  S
Co823     Cl1865   2.463   1_455  S
C824        N862   1.352       .  A
N825        N832   1.323       .  A
N825        N855   1.328       .  A
N825       Co858   2.115       .  S
N826        N844   1.323       .  A
N826        N862   1.325       .  A
N827        C856   1.344       .  A
N827        N837   1.319       .  A
H828        C853   1.081       .  S
N829        N850   1.322       .  A
N829      Co1821   2.075   1_455  S
N830        N848   1.323       .  A
N830        N835   1.323       .  A
C831        N835   1.343       .  A
C831        C859   1.482       .  S
N832        C847   1.345       .  A
N832       Co854   2.091       .  S
C833        N861   1.335       .  A
C833        H867   1.081       .  S
C833        C836   1.448       .  S
C836        N857   1.360       .  A
N837        N843   1.315       .  A
N837      Co1321   2.057   1_455  S
N838        C864   1.343       .  A
N838        N840   1.324       .  A
N839        C853   1.336       .  A
N840        N868   1.330       .  A
H841        C864   1.081       .  S
H842        C859   1.082       .  S
N844      Co1858   2.108   1_455  S
N845        N857   1.335       .  A
N845        N861   1.319       .  A
C846        N850   1.346       .  A
C846        C860   1.461       .  S
C847        H851   1.081       .  S
C847        C866   1.468       .  S
N848        C859   1.350       .  A
N848      Co1358   2.132   1_455  S
C852        N868   1.359       .  A
C852        C864   1.468       .  S
Co854      Cl865   2.467       .  S
N855        C866   1.356       .  A
Co858      N1844   2.091       .  S
Co858      N1348   2.142   1_565  S
Co858      Cl865   2.429       .  S
Cl865     Co1823   2.470       .  S
N869        C874   1.364       .  A
N869        C873   1.363       .  A
N869        H901   1.040       .  S
N870        C877   1.356       .  A
N870        C878   1.356       .  A
N871        C876   1.357       .  A
N871        C875   1.356       .  A
N871        H902   1.043       .  S
N872        C879   1.353       .  A
N872        C880   1.352       .  A
C873        C881   1.388       .  A
C873        C889   1.436       .  A
C874        C890   1.436       .  A
C874        C882   1.388       .  A
C875        C883   1.387       .  A
C875        C892   1.417       .  A
C876        C891   1.420       .  A
C876        C884   1.387       .  A
C877        C889   1.420       .  A
C877        C885   1.387       .  A
C878        C892   1.421       .  A
C878        C886   1.386       .  A
C879        C887   1.389       .  A
C879        C890   1.415       .  A
C880        C888   1.383       .  A
C880        C891   1.409       .  A
C881        C882   1.381       .  A
C881        H893   1.083       .  S
C882        H894   1.082       .  S
C883        C884   1.373       .  A
C883        H895   1.082       .  S
C884        H896   1.082       .  S
C885        C886   1.378       .  A
C885        H897   1.082       .  S
C886        H898   1.082       .  S
C887        C888   1.372       .  A
C887        H899   1.080       .  S
C888        H900   1.082       .  S
C891        C938   1.496       .  S
C892        C942   1.504       .  S
N903        C908   1.351       .  A
N903        C907   1.354       .  A
N903        H935   1.040       .  S
N904        C911   1.356       .  A
N904        C912   1.353       .  A
N905        C910   1.367       .  A
N905        C909   1.360       .  A
N905        H936   1.035       .  S
N906        C913   1.345       .  A
N906        C914   1.350       .  A
C907        C915   1.388       .  A
C907        C923   1.418       .  A
C908        C924   1.412       .  A
C908        C916   1.385       .  A
C909        C917   1.392       .  A
C909        C926   1.440       .  A
C910        C925   1.434       .  A
C910        C918   1.384       .  A
C911        C923   1.421       .  A
C911        C919   1.387       .  A
C912        C926   1.416       .  A
C912        C920   1.386       .  A
C913        C921   1.390       .  A
C913        C924   1.410       .  A
C914        C922   1.382       .  A
C914        C925   1.402       .  A
C915        C916   1.377       .  A
C915        H927   1.082       .  S
C916        H928   1.082       .  S
C917        C918   1.376       .  A
C917        H929   1.081       .  S
C918        H930   1.082       .  S
C919        C920   1.373       .  A
C919        H931   1.081       .  S
C920        H932   1.079       .  S
C921        C922   1.371       .  A
C921        H933   1.082       .  S
C922        H934   1.081       .  S
C923        C949   1.506       .  S
C924        C946   1.477       .  S
C937        C938   1.346       .  D
C937        H939   1.087       .  S
C938        H940   1.087       .  S
C941        C942   1.341       .  D
C941        H943   1.087       .  S
C942        H944   1.087       .  S
C945        C946   1.336       .  D
C945        H947   1.087       .  S
C946        H948   1.087       .  S
C949        C950   1.348       .  D
C949        H951   1.085       .  S
C950        H952   1.086       .  S
C953        C954   1.349       .  D
C953        H955   1.086       .  S
C954        H956   1.086       .  S
C957        C958   1.337       .  D
C957        H959   1.087       .  S
C958        H960   1.084       .  S
C961        C962   1.349       .  D
C961        H963   1.087       .  S
C962        H964   1.086       .  S
C965        C966   1.347       .  D
C965        H967   1.087       .  S
C966        H968   1.086       .  S
C969        C970   1.344       .  D
C969        H971   1.086       .  S
C970        H972   1.083       .  S
C973        C974   1.352       .  D
C973        H975   1.086       .  S
C974        H976   1.085       .  S
C977        C978   1.346       .  D
C977        H979   1.086       .  S
C978        H980   1.086       .  S
C981        C982   1.350       .  D
C981        H983   1.087       .  S
C982        H984   1.086       .  S
C985        C986   1.348       .  D
C985        H987   1.085       .  S
C986        H988   1.084       .  S
C989        C990   1.343       .  D
C989        H991   1.083       .  S
C990        H992   1.087       .  S
C993        C994   1.345       .  D
C993        H995   1.086       .  S
C994        H996   1.088       .  S
C997        C998   1.348       .  D
C997        H999   1.086       .  S
C998       H1000   1.088       .  S
N1001      C1006   1.354       .  A
N1001      C1005   1.356       .  A
N1001      H1033   1.042       .  S
N1002      C1009   1.347       .  A
N1002      C1010   1.350       .  A
N1003      C1008   1.358       .  A
N1003      C1007   1.360       .  A
N1003      H1034   1.039       .  S
N1004      C1011   1.353       .  A
N1004      C1012   1.355       .  A
C1005      C1013   1.385       .  A
C1005      C1021   1.415       .  A
C1006      C1022   1.420       .  A
C1006      C1014   1.389       .  A
C1007      C1015   1.388       .  A
C1007      C1024   1.428       .  A
C1008      C1023   1.426       .  A
C1008      C1016   1.387       .  A
C1009      C1021   1.402       .  A
C1009      C1017   1.386       .  A
C1010      C1024   1.406       .  A
C1010      C1018   1.387       .  A
C1011      C1019   1.387       .  A
C1011      C1022   1.415       .  A
C1012      C1020   1.386       .  A
C1012      C1023   1.415       .  A
C1013      C1014   1.376       .  A
C1013      H1025   1.082       .  S
C1014      H1026   1.082       .  S
C1015      C1016   1.379       .  A
C1015      H1027   1.082       .  S
C1016      H1028   1.083       .  S
C1017      C1018   1.369       .  A
C1017      H1029   1.083       .  S
C1018      H1030   1.081       .  S
C1019      C1020   1.375       .  A
C1019      H1031   1.082       .  S
C1020      H1032   1.082       .  S
C1021      C1494   1.480       .  S
C1022      C1498   1.492       .  S
C1023      C1196   1.496       .  S
C1024      C1166   1.491       .  S
N1035      C1040   1.359       .  A
N1035      C1039   1.358       .  A
N1035      H1067   1.038       .  S
N1036      C1043   1.359       .  A
N1036      C1044   1.359       .  A
N1037      C1042   1.354       .  A
N1037      C1041   1.355       .  A
N1037      H1068   1.038       .  S
N1038      C1045   1.354       .  A
N1038      C1046   1.355       .  A
C1039      C1047   1.384       .  A
C1039      C1055   1.421       .  A
C1040      C1056   1.430       .  A
C1040      C1048   1.390       .  A
C1041      C1049   1.389       .  A
C1041      C1058   1.416       .  A
C1042      C1057   1.418       .  A
C1042      C1050   1.386       .  A
C1043      C1055   1.428       .  A
C1043      C1051   1.386       .  A
C1044      C1058   1.429       .  A
C1044      C1052   1.388       .  A
C1045      C1053   1.386       .  A
C1045      C1056   1.425       .  A
C1046      C1054   1.386       .  A
C1046      C1057   1.418       .  A
C1047      C1048   1.380       .  A
C1047      H1059   1.081       .  S
C1048      H1060   1.081       .  S
C1049      C1050   1.371       .  A
C1049      H1061   1.081       .  S
C1050      H1062   1.083       .  S
C1051      C1052   1.371       .  A
C1053      C1054   1.369       .  A
C1053      H1065   1.082       .  S
C1054      H1066   1.080       .  S
C1055      C1216   1.509       .  S
C1056      C1485   1.514       .  S
C1057      C1489   1.501       .  S
C1058      C1174   1.492       .  S
O1069      C1077   1.275       .  A
O1069     Co1089   2.013       .  S
O1070      C1078   1.266       .  A
O1070     Co1090   2.010       .  S
O1071      C1079   1.264       .  A
O1071     Co1091   1.879       .  S
O1072      C1080   1.261       .  A
O1072     Co1592   1.959       .  S
O1073      C1079   1.293       .  A
O1073     Co1090   2.111       .  S
O1074      C1080   1.271       .  A
O1074     Co1089   2.020       .  S
O1075      C1078   1.253       .  A
O1075     Co1092   1.967   1_545  S
O1076      C1077   1.270       .  A
O1076     Co1591   1.975       .  S
C1077      C1497   1.466       .  S
C1078      C1469   1.466       .  S
C1079      C1493   1.473       .  S
C1080      C1473   1.474       .  S
O1081      C1094   1.267       .  A
O1081     Co1089   1.980       .  S
O1082      C1095   1.268       .  A
O1082     Co1090   1.891       .  S
O1083      C1096   1.259       .  A
O1083     Co1591   1.983       .  S
O1084      C1097   1.277       .  A
O1084     Co1092   2.014   1_545  S
O1085      C1097   1.270       .  A
O1085     Co1090   1.976       .  S
O1086      C1096   1.263       .  A
O1086     Co1089   1.986       .  S
O1087      C1094   1.271       .  A
O1087     Co1592   2.000       .  S
O1088      C1095   1.298       .  A
O1088     Co1091   2.124       .  S
Co1089     O1593   2.048       .  S
Co1090     O1093   2.019   1_545  S
Co1091     O1576   1.976   1_545  S
Co1091     O1583   1.979   1_545  S
Co1091     O1093   1.998   1_545  S
Co1092     O1572   1.956       .  S
Co1092     O1587   2.001       .  S
Co1092     O1093   2.023       .  S
O1093     Co1589   2.049       .  S
C1094      C1482   1.473       .  S
C1095      C1486   1.481       .  S
C1096      C1490   1.471       .  S
C1097      C1478   1.478       .  S
N1098      C1103   1.357       .  A
N1098      C1102   1.361       .  A
N1098      H1130   1.042       .  S
N1099      C1106   1.350       .  A
N1099      C1107   1.352       .  A
N1100      C1105   1.349       .  A
N1100      C1104   1.347       .  A
N1100      H1131   1.043       .  S
N1101      C1108   1.351       .  A
N1101      C1109   1.358       .  A
C1102      C1110   1.386       .  A
C1102      C1118   1.423       .  A
C1103      C1119   1.424       .  A
C1103      C1111   1.389       .  A
C1104      C1112   1.388       .  A
C1104      C1121   1.403       .  A
C1105      C1120   1.407       .  A
C1105      C1113   1.385       .  A
C1106      C1118   1.412       .  A
C1106      C1114   1.386       .  A
C1107      C1121   1.413       .  A
C1107      C1115   1.386       .  A
C1108      C1116   1.388       .  A
C1108      C1119   1.418       .  A
C1109      C1117   1.386       .  A
C1109      C1120   1.420       .  A
C1110      C1111   1.381       .  A
C1110      H1122   1.082       .  S
C1111      H1123   1.082       .  S
C1112      C1113   1.372       .  A
C1112      H1124   1.079       .  S
C1113      H1125   1.082       .  S
C1114      C1115   1.380       .  A
C1114      H1126   1.083       .  S
C1115      H1127   1.083       .  S
C1116      C1117   1.377       .  A
C1116      H1128   1.083       .  S
C1117      H1129   1.082       .  S
C1118      C1336   1.494       .  S
C1119      C1316   1.485       .  S
C1120      C1474   1.501       .  S
C1121      C1470   1.478       .  S
N1132      C1137   1.357       .  A
N1132      C1136   1.356       .  A
N1132      H1164   1.038       .  S
N1133      C1140   1.353       .  A
N1133      C1141   1.353       .  A
N1134      C1139   1.357       .  A
N1134      C1138   1.357       .  A
N1134      H1165   1.039       .  S
N1135      C1142   1.351       .  A
N1135      C1143   1.351       .  A
C1136      C1144   1.388       .  A
C1136      C1152   1.420       .  A
C1137      C1153   1.419       .  A
C1137      C1145   1.388       .  A
C1138      C1146   1.388       .  A
C1138      C1155   1.419       .  A
C1139      C1154   1.417       .  A
C1139      C1147   1.387       .  A
C1140      C1152   1.414       .  A
C1140      C1148   1.387       .  A
C1141      C1155   1.415       .  A
C1141      C1149   1.388       .  A
C1142      C1150   1.387       .  A
C1142      C1153   1.411       .  A
C1143      C1151   1.387       .  A
C1143      C1154   1.413       .  A
C1144      C1145   1.371       .  A
C1144      H1156   1.082       .  S
C1145      H1157   1.083       .  S
C1146      C1147   1.374       .  A
C1146      H1158   1.082       .  S
C1147      H1159   1.083       .  S
C1148      C1149   1.367       .  A
C1148      H1160   1.082       .  S
C1149      H1161   1.082       .  S
C1150      C1151   1.367       .  A
C1150      H1162   1.082       .  S
C1151      H1163   1.082       .  S
C1152      C1477   1.488       .  S
C1153      C1481   1.480       .  S
C1154      C1346   1.479       .  S
C1155      C1356   1.482       .  S
C1166      N1184   1.336       .  A
C1166      C1203   1.483       .  S
N1167      N1184   1.318       .  A
N1167      N1189   1.322       .  A
C1168      N1193   1.360       .  A
C1168      H1213   1.081       .  S
C1168      C1206   1.488       .  S
H1169      C1210   1.082       .  S
C1170      N1194   1.354       .  A
C1170      H1199   1.081       .  S
C1170      C1174   1.479       .  S
Co1171     N1689   2.114       .  S
Co1171     N1179   2.122       .  S
Co1171     N1711   2.069       .  S
Co1171     N1187   2.052       .  S
N1172      C1210   1.333       .  A
N1172      N1179   1.322       .  A
Co1173     N1176   2.068       .  S
Co1173     N1180   2.124       .  S
Co1173    Cl1215   2.453       .  S
C1174      N1212   1.338       .  A
N1175      N1182   1.323       .  A
N1175      N1205   1.338       .  A
N1175     Co1708   2.124       .  S
N1176      N1194   1.323       .  A
N1176      N1212   1.317       .  A
N1177      C1206   1.333       .  A
N1177      N1187   1.316       .  A
H1178      C1203   1.081       .  S
N1179      N1200   1.336       .  A
N1180      N1198   1.323       .  A
N1180      N1185   1.333       .  A
C1181      N1185   1.365       .  A
C1181      C1209   1.447       .  S
C1181      C1425   1.498       .  S
N1182      C1197   1.335       .  A
N1182     Co1204   2.091       .  S
C1183      N1211   1.332       .  A
C1183      H1217   1.082       .  S
C1183      C1186   1.439       .  S
C1186      N1207   1.373       .  A
C1186      C1389   1.508       .  S
N1187      N1193   1.324       .  A
N1188      C1214   1.357       .  A
N1188      N1190   1.326       .  A
N1188     Co1204   2.135       .  S
N1189      C1203   1.354       .  A
N1189     Co1671   2.122   1_545  S
N1190      N1218   1.319       .  A
N1190     Co1708   2.078       .  S
H1191      C1214   1.081       .  S
H1192      C1209   1.082       .  S
N1194     Co1208   2.115       .  S
N1195      N1207   1.342       .  A
N1195      N1211   1.322       .  A
C1196      N1200   1.364       .  A
C1196      C1210   1.445       .  S
C1197      H1201   1.082       .  S
C1197      C1216   1.452       .  S
N1198      C1209   1.338       .  A
N1198     Co1208   2.076       .  S
C1202      N1218   1.339       .  A
C1202      C1214   1.484       .  S
C1202      C1390   1.500       .  S
Co1204    Cl1715   2.461       .  S
N1205      C1216   1.365       .  A
C1206      C1426   1.495       .  S
Co1208     N1675   2.126       .  S
Co1208     N1690   2.065       .  S
Co1208    Cl1215   2.458       .  S
N1211     Co1671   2.065   1_545  S
Cl1215    Co1704   2.458       .  S
O1219      C1227   1.263       .  A
O1219     Co1239   1.967       .  S
O1220      C1228   1.270       .  A
O1221      C1229   1.264       .  A
O1221     Co1241   1.993       .  S
O1222      C1230   1.256       .  A
O1222     Co1242   1.958   1_556  S
O1223      C1229   1.259       .  A
O1223     Co1240   1.973       .  S
O1224      C1230   1.267       .  A
O1225      C1228   1.261       .  A
O1225     Co1242   1.972       .  S
O1226      C1227   1.271       .  A
O1226     Co1241   1.993   1_556  S
C1227      C1457   1.463       .  S
C1228      C1445   1.468       .  S
C1229      C1450   1.478       .  S
C1230      C1453   1.479       .  S
O1231      C1244   1.256       .  A
O1232      C1245   1.273       .  A
O1232     Co1240   1.997       .  S
O1233      C1246   1.273       .  A
O1233     Co1241   1.998   1_556  S
O1234      C1247   1.273       .  A
O1234     Co1242   2.021       .  S
O1235      C1247   1.262       .  A
O1236      C1246   1.272       .  A
O1236     Co1239   1.998       .  S
O1237      C1244   1.274       .  A
O1237     Co1242   2.011   1_556  S
O1238      C1245   1.277       .  A
O1238     Co1241   2.001       .  S
Co1239     O1243   1.937   1_556  S
Co1240     O1243   1.921       .  S
Co1241     O1243   2.015       .  S
C1244      C1462   1.463       .  S
C1245      C1441   1.476       .  S
C1246      C1466   1.497       .  S
C1247      C1437   1.475       .  S
N1248      C1253   1.357       .  A
N1248      C1252   1.353       .  A
N1248      H1280   1.043       .  S
N1249      C1256   1.346       .  A
N1249      C1257   1.349       .  A
N1250      C1255   1.351       .  A
N1250      C1254   1.353       .  A
N1250      H1281   1.044       .  S
N1251      C1258   1.357       .  A
N1251      C1259   1.356       .  A
C1252      C1260   1.381       .  A
C1252      C1268   1.411       .  A
C1253      C1269   1.427       .  A
C1253      C1261   1.393       .  A
C1254      C1262   1.379       .  A
C1254      C1271   1.404       .  A
C1255      C1270   1.419       .  A
C1255      C1263   1.392       .  A
C1256      C1268   1.403       .  A
C1256      C1264   1.388       .  A
C1257      C1271   1.403       .  A
C1257      C1265   1.386       .  A
C1258      C1266   1.387       .  A
C1258      C1269   1.426       .  A
C1259      C1267   1.386       .  A
C1259      C1270   1.422       .  A
C1260      C1261   1.376       .  A
C1260      H1272   1.082       .  S
C1261      H1273   1.078       .  S
C1262      C1263   1.377       .  A
C1262      H1274   1.082       .  S
C1263      H1275   1.080       .  S
C1264      C1265   1.369       .  A
C1264      H1276   1.082       .  S
C1265      H1277   1.082       .  S
C1266      C1267   1.379       .  A
C1266      H1278   1.081       .  S
C1267      H1279   1.082       .  S
C1268      C1458   1.480       .  S
C1269      C1366   1.516       .  S
C1270      C1324   1.505       .  S
C1271      C1454   1.484       .  S
N1282      C1287   1.365       .  A
N1282      C1286   1.356       .  A
N1282      H1314   1.043       .  S
N1283      C1290   1.345       .  A
N1283      C1291   1.356       .  A
N1284      C1289   1.346       .  A
N1284      C1288   1.353       .  A
N1284      H1315   1.042       .  S
N1285      C1292   1.352       .  A
N1285      C1293   1.348       .  A
C1286      C1294   1.389       .  A
C1286      C1302   1.431       .  A
C1287      C1303   1.429       .  A
C1287      C1295   1.384       .  A
C1288      C1296   1.387       .  A
C1288      C1305   1.411       .  A
C1289      C1304   1.404       .  A
C1289      C1297   1.387       .  A
C1290      C1302   1.413       .  A
C1290      C1298   1.389       .  A
C1291      C1305   1.414       .  A
C1291      C1299   1.384       .  A
C1292      C1300   1.382       .  A
C1292      C1303   1.406       .  A
C1293      C1301   1.390       .  A
C1293      C1304   1.414       .  A
C1294      C1295   1.382       .  A
C1294      H1306   1.080       .  S
C1295      H1307   1.081       .  S
C1296      C1297   1.376       .  A
C1296      H1308   1.083       .  S
C1297      H1309   1.083       .  S
C1298      C1299   1.379       .  A
C1298      H1310   1.082       .  S
C1299      H1311   1.081       .  S
C1300      C1301   1.374       .  A
C1300      H1312   1.082       .  S
C1301      H1313   1.081       .  S
C1302      C1352   1.492       .  S
C1303      C1331   1.514       .  S
C1304      C1461   1.474       .  S
C1305      C1465   1.498       .  S
C1316      N1334   1.360       .  A
C1316      C1353   1.444       .  S
N1317      N1334   1.334       .  A
N1317      N1339   1.318       .  A
N1317     Co1354   2.122       .  S
C1318      N1343   1.349       .  A
C1318      H1363   1.081       .  S
C1318      C1356   1.470       .  S
H1319      C1360   1.081       .  S
C1320      N1344   1.341       .  A
C1320      H1349   1.080       .  S
C1320      C1324   1.474       .  S
Co1321     N1339   2.054       .  S
Co1321     N1861   2.069       .  S
Co1321    Cl1365   2.450       .  S
N1322      C1360   1.345       .  A
N1322      N1329   1.318       .  A
N1322     Co1323   2.091       .  S
Co1323     N1326   2.074       .  S
Co1323     N1843   2.085       .  S
Co1323     N1830   2.064       .  S
C1324      N1362   1.350       .  A
N1325      N1332   1.324       .  A
N1325      N1355   1.327       .  A
N1325     Co1358   2.119       .  S
N1326      N1344   1.321       .  A
N1326      N1362   1.324       .  A
N1327      C1356   1.344       .  A
N1327      N1337   1.320       .  A
H1328      C1353   1.081       .  S
N1329      N1350   1.321       .  A
N1330      N1348   1.324       .  A
N1330      N1335   1.328       .  A
N1330     Co1823   2.070   1_545  S
C1331      N1335   1.348       .  A
C1331      C1359   1.478       .  S
N1332      C1347   1.342       .  A
N1332     Co1354   2.092       .  S
C1333      N1361   1.337       .  A
C1333      H1367   1.081       .  S
C1333      C1336   1.452       .  S
C1336      N1357   1.360       .  A
N1337      N1343   1.318       .  A
N1338      C1364   1.338       .  A
N1338      N1340   1.324       .  A
N1338     Co1854   2.078   1_545  S
N1339      C1353   1.332       .  A
N1340      N1368   1.323       .  A
N1340     Co1858   2.101   1_545  S
H1341      C1364   1.081       .  S
H1342      C1359   1.081       .  S
N1343     Co1823   2.106   1_545  S
N1345      N1357   1.335       .  A
N1345      N1361   1.317       .  A
N1345     Co1854   2.122   1_545  S
C1346      N1350   1.345       .  A
C1346      C1360   1.462       .  S
C1347      H1351   1.080       .  S
C1347      C1366   1.468       .  S
N1348      C1359   1.351       .  A
C1352      N1368   1.353       .  A
C1352      C1364   1.460       .  S
Co1354     N1838   2.073       .  S
Co1354     N1845   2.116       .  S
Co1354    Cl1365   2.452       .  S
N1355      C1366   1.357       .  A
Co1358     N1840   2.116       .  S
Co1358    Cl1365   2.461       .  S
N1361     Co1821   2.070   1_545  S
N1369      C1374   1.361       .  A
N1369      C1373   1.365       .  A
N1369      H1401   1.038       .  S
N1370      C1377   1.355       .  A
N1370      C1378   1.351       .  A
N1371      C1376   1.359       .  A
N1371      C1375   1.355       .  A
N1371      H1402   1.042       .  S
N1372      C1379   1.354       .  A
N1372      C1380   1.355       .  A
C1373      C1381   1.386       .  A
C1373      C1389   1.434       .  A
C1374      C1390   1.435       .  A
C1374      C1382   1.389       .  A
C1375      C1383   1.386       .  A
C1375      C1392   1.415       .  A
C1376      C1391   1.419       .  A
C1376      C1384   1.386       .  A
C1377      C1389   1.415       .  A
C1377      C1385   1.386       .  A
C1378      C1392   1.414       .  A
C1378      C1386   1.386       .  A
C1379      C1387   1.388       .  A
C1379      C1390   1.418       .  A
C1380      C1388   1.386       .  A
C1380      C1391   1.416       .  A
C1381      C1382   1.379       .  A
C1381      H1393   1.082       .  S
C1382      H1394   1.082       .  S
C1383      C1384   1.367       .  A
C1383      H1395   1.082       .  S
C1384      H1396   1.080       .  S
C1385      C1386   1.377       .  A
C1385      H1397   1.082       .  S
C1386      H1398   1.082       .  S
C1387      C1388   1.374       .  A
C1387      H1399   1.081       .  S
C1388      H1400   1.082       .  S
C1391      C1438   1.503       .  S
C1392      C1442   1.489       .  S
N1403      C1408   1.354       .  A
N1403      C1407   1.352       .  A
N1403      H1435   1.035       .  S
N1404      C1411   1.356       .  A
N1404      C1412   1.351       .  A
N1405      C1410   1.363       .  A
N1405      C1409   1.362       .  A
N1405      H1436   1.032       .  S
N1406      C1413   1.347       .  A
N1406      C1414   1.349       .  A
C1407      C1415   1.387       .  A
C1407      C1423   1.413       .  A
C1408      C1424   1.414       .  A
C1408      C1416   1.385       .  A
C1409      C1417   1.391       .  A
C1409      C1426   1.437       .  A
C1410      C1425   1.433       .  A
C1410      C1418   1.385       .  A
C1411      C1423   1.418       .  A
C1411      C1419   1.386       .  A
C1412      C1426   1.414       .  A
C1412      C1420   1.386       .  A
C1413      C1421   1.383       .  A
C1413      C1424   1.401       .  A
C1414      C1422   1.390       .  A
C1414      C1425   1.410       .  A
C1415      C1416   1.373       .  A
C1415      H1427   1.082       .  S
C1416      H1428   1.079       .  S
C1417      C1418   1.383       .  A
C1417      H1429   1.082       .  S
C1418      H1430   1.082       .  S
C1419      C1420   1.377       .  A
C1419      H1431   1.081       .  S
C1420      H1432   1.082       .  S
C1421      C1422   1.371       .  A
C1421      H1433   1.083       .  S
C1422      H1434   1.080       .  S
C1423      C1449   1.500       .  S
C1424      C1446   1.480       .  S
C1437      C1438   1.353       .  D
C1437      H1439   1.085       .  S
C1438      H1440   1.087       .  S
C1441      C1442   1.340       .  D
C1441      H1443   1.087       .  S
C1442      H1444   1.087       .  S
C1445      C1446   1.339       .  D
C1445      H1447   1.087       .  S
C1446      H1448   1.087       .  S
C1449      C1450   1.344       .  D
C1449      H1451   1.088       .  S
C1450      H1452   1.083       .  S
C1453      C1454   1.343       .  D
C1453      H1455   1.087       .  S
C1454      H1456   1.087       .  S
C1457      C1458   1.335       .  D
C1457      H1459   1.087       .  S
C1458      H1460   1.087       .  S
C1461      C1462   1.334       .  D
C1461      H1463   1.088       .  S
C1462      H1464   1.087       .  S
C1465      C1466   1.355       .  D
C1465      H1467   1.087       .  S
C1466      H1468   1.085       .  S
C1469      C1470   1.342       .  D
C1469      H1471   1.085       .  S
C1470      H1472   1.083       .  S
C1473      C1474   1.354       .  D
C1473      H1475   1.086       .  S
C1474      H1476   1.086       .  S
C1477      C1478   1.348       .  D
C1477      H1479   1.087       .  S
C1478      H1480   1.086       .  S
C1481      C1482   1.348       .  D
C1481      H1483   1.088       .  S
C1482      H1484   1.086       .  S
C1485      C1486   1.353       .  D
C1485      H1487   1.085       .  S
C1486      H1488   1.085       .  S
C1489      C1490   1.346       .  D
C1489      H1491   1.083       .  S
C1490      H1492   1.087       .  S
C1493      C1494   1.342       .  D
C1493      H1495   1.086       .  S
C1494      H1496   1.088       .  S
C1497      C1498   1.345       .  D
C1497      H1499   1.086       .  S
C1498      H1500   1.088       .  S
N1501      C1506   1.355       .  A
N1501      C1505   1.356       .  A
N1501      H1533   1.042       .  S
N1502      C1509   1.345       .  A
N1502      C1510   1.349       .  A
N1503      C1508   1.355       .  A
N1503      C1507   1.358       .  A
N1503      H1534   1.039       .  S
N1504      C1511   1.351       .  A
N1504      C1512   1.353       .  A
C1505      C1513   1.385       .  A
C1505      C1521   1.415       .  A
C1506      C1522   1.420       .  A
C1506      C1514   1.388       .  A
C1507      C1515   1.387       .  A
C1507      C1524   1.423       .  A
C1508      C1523   1.422       .  A
C1508      C1516   1.388       .  A
C1509      C1521   1.401       .  A
C1509      C1517   1.387       .  A
C1510      C1524   1.404       .  A
C1510      C1518   1.386       .  A
C1511      C1519   1.387       .  A
C1511      C1522   1.412       .  A
C1512      C1520   1.386       .  A
C1512      C1523   1.412       .  A
C1513      C1514   1.376       .  A
C1513      H1525   1.081       .  S
C1514      H1526   1.082       .  S
C1515      C1516   1.378       .  A
C1515      H1527   1.083       .  S
C1516      H1528   1.083       .  S
C1517      C1518   1.370       .  A
C1517      H1529   1.083       .  S
C1518      H1530   1.081       .  S
C1519      C1520   1.375       .  A
C1519      H1531   1.082       .  S
C1520      H1532   1.082       .  S
C1521      C1994   1.477       .  S
C1522      C1998   1.492       .  S
C1523      C1696   1.486       .  S
C1524      C1666   1.486       .  S
N1535      C1540   1.356       .  A
N1535      C1539   1.358       .  A
N1535      H1567   1.038       .  S
N1536      C1543   1.358       .  A
N1536      C1544   1.359       .  A
N1537      C1542   1.352       .  A
N1537      C1541   1.357       .  A
N1537      H1568   1.039       .  S
N1538      C1545   1.359       .  A
N1538      C1546   1.357       .  A
C1539      C1547   1.386       .  A
C1539      C1555   1.423       .  A
C1540      C1556   1.425       .  A
C1540      C1548   1.389       .  A
C1541      C1549   1.387       .  A
C1541      C1558   1.416       .  A
C1542      C1557   1.418       .  A
C1542      C1550   1.387       .  A
C1543      C1555   1.427       .  A
C1543      C1551   1.386       .  A
C1544      C1558   1.430       .  A
C1544      C1552   1.388       .  A
C1545      C1553   1.387       .  A
C1545      C1556   1.430       .  A
C1546      C1554   1.387       .  A
C1546      C1557   1.422       .  A
C1547      C1548   1.378       .  A
C1547      H1559   1.082       .  S
C1548      H1560   1.081       .  S
C1549      C1550   1.373       .  A
C1549      H1561   1.081       .  S
C1550      H1562   1.082       .  S
C1551      C1552   1.374       .  A
C1553      C1554   1.365       .  A
C1553      H1565   1.081       .  S
C1554      H1566   1.080       .  S
C1555      C1716   1.503       .  S
C1556      C1985   1.514       .  S
C1557      C1989   1.496       .  S
C1558      C1674   1.499       .  S
O1569      C1577   1.275       .  A
O1569     Co1589   2.013       .  S
O1570      C1578   1.263       .  A
O1570     Co1590   2.003       .  S
O1571      C1579   1.265       .  A
O1571     Co1591   1.879       .  S
O1572      C1580   1.260       .  A
O1573      C1579   1.292       .  A
O1573     Co1590   2.106       .  S
O1574      C1580   1.271       .  A
O1574     Co1589   2.022       .  S
O1575      C1578   1.253       .  A
O1575     Co1592   1.971       .  S
O1576      C1577   1.271       .  A
C1577      C1997   1.467       .  S
C1578      C1969   1.466       .  S
C1579      C1993   1.471       .  S
C1580      C1973   1.473       .  S
O1581      C1594   1.268       .  A
O1581     Co1589   1.979       .  S
O1582      C1595   1.265       .  A
O1582     Co1590   1.889       .  S
O1583      C1596   1.259       .  A
O1584      C1597   1.278       .  A
O1584     Co1592   2.018       .  S
O1585      C1597   1.269       .  A
O1585     Co1590   1.972       .  S
O1586      C1596   1.264       .  A
O1586     Co1589   1.988       .  S
O1587      C1594   1.272       .  A
O1588      C1595   1.298       .  A
O1588     Co1591   2.124       .  S
Co1590     O1593   2.016       .  S
Co1591     O1593   2.005       .  S
Co1592     O1593   2.030       .  S
C1594      C1982   1.472       .  S
C1595      C1986   1.479       .  S
C1596      C1990   1.469       .  S
C1597      C1978   1.476       .  S
N1598      C1603   1.357       .  A
N1598      C1602   1.360       .  A
N1598      H1630   1.041       .  S
N1599      C1606   1.349       .  A
N1599      C1607   1.352       .  A
N1600      C1605   1.348       .  A
N1600      C1604   1.347       .  A
N1600      H1631   1.042       .  S
N1601      C1608   1.351       .  A
N1601      C1609   1.357       .  A
C1602      C1610   1.387       .  A
C1602      C1618   1.423       .  A
C1603      C1619   1.422       .  A
C1603      C1611   1.388       .  A
C1604      C1612   1.387       .  A
C1604      C1621   1.402       .  A
C1605      C1620   1.407       .  A
C1605      C1613   1.386       .  A
C1606      C1618   1.410       .  A
C1606      C1614   1.387       .  A
C1607      C1621   1.411       .  A
C1607      C1615   1.386       .  A
C1608      C1616   1.388       .  A
C1608      C1619   1.416       .  A
C1609      C1617   1.386       .  A
C1609      C1620   1.419       .  A
C1610      C1611   1.381       .  A
C1610      H1622   1.082       .  S
C1611      H1623   1.082       .  S
C1612      C1613   1.373       .  A
C1612      H1624   1.080       .  S
C1613      H1625   1.082       .  S
C1614      C1615   1.377       .  A
C1614      H1626   1.083       .  S
C1615      H1627   1.083       .  S
C1616      C1617   1.378       .  A
C1616      H1628   1.083       .  S
C1617      H1629   1.082       .  S
C1618      C1836   1.488       .  S
C1619      C1816   1.484       .  S
C1620      C1974   1.499       .  S
C1621      C1970   1.475       .  S
N1632      C1637   1.356       .  A
N1632      C1636   1.358       .  A
N1632      H1664   1.035       .  S
N1633      C1640   1.350       .  A
N1633      C1641   1.349       .  A
N1634      C1639   1.355       .  A
N1634      C1638   1.355       .  A
N1634      H1665   1.040       .  S
N1635      C1642   1.351       .  A
N1635      C1643   1.352       .  A
C1636      C1644   1.389       .  A
C1636      C1652   1.424       .  A
C1637      C1653   1.421       .  A
C1637      C1645   1.388       .  A
C1638      C1646   1.388       .  A
C1638      C1655   1.415       .  A
C1639      C1654   1.412       .  A
C1639      C1647   1.386       .  A
C1640      C1652   1.412       .  A
C1640      C1648   1.388       .  A
C1641      C1655   1.410       .  A
C1641      C1649   1.387       .  A
C1642      C1650   1.389       .  A
C1642      C1653   1.414       .  A
C1643      C1651   1.385       .  A
C1643      C1654   1.410       .  A
C1644      C1645   1.372       .  A
C1644      H1656   1.082       .  S
C1645      H1657   1.083       .  S
C1646      C1647   1.373       .  A
C1646      H1658   1.083       .  S
C1647      H1659   1.083       .  S
C1648      C1649   1.367       .  A
C1648      H1660   1.082       .  S
C1649      H1661   1.082       .  S
C1650      C1651   1.368       .  A
C1650      H1662   1.082       .  S
C1651      H1663   1.083       .  S
C1652      C1977   1.486       .  S
C1653      C1981   1.479       .  S
C1654      C1846   1.476       .  S
C1655      C1856   1.473       .  S
C1666      N1684   1.337       .  A
C1666      C1703   1.479       .  S
N1667      N1684   1.318       .  A
N1667      N1689   1.322       .  A
C1668      N1693   1.359       .  A
C1668      H1713   1.081       .  S
C1668      C1706   1.486       .  S
H1669      C1710   1.082       .  S
C1670      N1694   1.358       .  A
C1670      H1699   1.081       .  S
C1670      C1674   1.486       .  S
Co1671     N1679   2.110       .  S
Co1671     N1687   2.063       .  S
N1672      C1710   1.330       .  A
N1672      N1679   1.322       .  A
Co1673     N1676   2.064       .  S
Co1673     N1680   2.160       .  S
Co1673    Cl1715   2.461   1_565  S
C1674      N1712   1.336       .  A
N1675      N1682   1.323       .  A
N1675      N1705   1.336       .  A
N1676      N1694   1.323       .  A
N1676      N1712   1.317       .  A
N1677      C1706   1.334       .  A
N1677      N1687   1.316       .  A
H1678      C1703   1.081       .  S
N1679      N1700   1.334       .  A
N1680      N1698   1.322       .  A
N1680      N1685   1.342       .  A
C1681      N1685   1.374       .  A
C1681      C1709   1.442       .  S
C1681      C1925   1.512       .  S
N1682      C1697   1.337       .  A
N1682     Co1704   2.088       .  S
C1683      N1711   1.333       .  A
C1683      H1717   1.082       .  S
C1683      C1686   1.441       .  S
C1686      N1707   1.372       .  A
C1686      C1889   1.509       .  S
N1687      N1693   1.325       .  A
N1688      C1714   1.346       .  A
N1688      N1690   1.324       .  A
N1688     Co1704   2.111       .  S
N1689      C1703   1.352       .  A
N1690      N1718   1.320       .  A
H1691      C1714   1.082       .  S
H1692      C1709   1.082       .  S
N1694     Co1708   2.133   1_565  S
N1695      N1707   1.341       .  A
N1695      N1711   1.323       .  A
C1696      N1700   1.362       .  A
C1696      C1710   1.441       .  S
C1697      H1701   1.082       .  S
C1697      C1716   1.450       .  S
N1698      C1709   1.336       .  A
N1698     Co1708   2.075   1_565  S
C1702      N1718   1.339       .  A
C1702      C1714   1.478       .  S
C1702      C1890   1.489       .  S
N1705      C1716   1.364       .  A
C1706      C1926   1.493       .  S
Co1708    Cl1715   2.455       .  S
O1719      C1727   1.278       .  A
O1719     Co1739   1.833       .  S
O1720      C1728   1.263       .  A
O1721      C1729   1.261       .  A
O1721     Co1741   1.982       .  S
O1722      C1730   1.274       .  A
O1722     Co1742   2.012   1_556  S
O1723      C1729   1.265       .  A
O1723     Co1740   1.985   1_655  S
O1724      C1730   1.271       .  A
O1725      C1728   1.275       .  A
O1725     Co1742   2.021       .  S
O1726      C1727   1.325       .  A
O1726     Co1741   2.169   1_556  S
C1727      C1957   1.464       .  S
C1728      C1945   1.463       .  S
C1729      C1950   1.492       .  S
C1730      C1953   1.476       .  S
O1731      C1744   1.260       .  A
O1732      C1745   1.258       .  A
O1732     Co1740   1.968   1_655  S
O1733      C1746   1.240       .  A
O1733     Co1741   1.951   1_556  S
O1734      C1747   1.258       .  A
O1734     Co1742   1.964       .  S
O1735      C1747   1.274       .  A
O1736      C1746   1.256       .  A
O1736     Co1739   2.030       .  S
O1737      C1744   1.258       .  A
O1737     Co1742   1.981   1_556  S
O1738      C1745   1.269       .  A
O1738     Co1741   1.997       .  S
Co1739     O1743   1.927   1_556  S
Co1740     O1743   1.985   1_455  S
Co1741     O1743   2.072       .  S
C1744      C1962   1.472       .  S
C1745      C1941   1.471       .  S
C1746      C1966   1.473       .  S
C1747      C1937   1.472       .  S
N1748      C1753   1.360       .  A
N1748      C1752   1.351       .  A
N1748      H1780   1.042       .  S
N1749      C1756   1.350       .  A
N1749      C1757   1.352       .  A
N1750      C1755   1.355       .  A
N1750      C1754   1.355       .  A
N1750      H1781   1.043       .  S
N1751      C1758   1.355       .  A
N1751      C1759   1.352       .  A
C1752      C1760   1.382       .  A
C1752      C1768   1.415       .  A
C1753      C1769   1.429       .  A
C1753      C1761   1.392       .  A
C1754      C1762   1.378       .  A
C1754      C1771   1.406       .  A
C1755      C1770   1.428       .  A
C1755      C1763   1.392       .  A
C1756      C1768   1.407       .  A
C1756      C1764   1.387       .  A
C1757      C1771   1.413       .  A
C1757      C1765   1.385       .  A
C1758      C1766   1.386       .  A
C1758      C1769   1.418       .  A
C1759      C1767   1.386       .  A
C1759      C1770   1.415       .  A
C1760      C1761   1.379       .  A
C1760      H1772   1.083       .  S
C1761      H1773   1.079       .  S
C1762      C1763   1.377       .  A
C1762      H1774   1.082       .  S
C1763      H1775   1.077       .  S
C1764      C1765   1.367       .  A
C1764      H1776   1.081       .  S
C1765      H1777   1.082       .  S
C1766      C1767   1.375       .  A
C1766      H1778   1.082       .  S
C1767      H1779   1.082       .  S
C1768      C1958   1.492       .  S
C1769      C1866   1.513       .  S
C1770      C1824   1.501       .  S
C1771      C1954   1.504       .  S
N1782      C1787   1.359       .  A
N1782      C1786   1.358       .  A
N1782      H1814   1.043       .  S
N1783      C1790   1.350       .  A
N1783      C1791   1.351       .  A
N1784      C1789   1.353       .  A
N1784      C1788   1.355       .  A
N1784      H1815   1.037       .  S
N1785      C1792   1.350       .  A
N1785      C1793   1.349       .  A
C1786      C1794   1.388       .  A
C1786      C1802   1.426       .  A
C1787      C1803   1.426       .  A
C1787      C1795   1.387       .  A
C1788      C1796   1.389       .  A
C1788      C1805   1.422       .  A
C1789      C1804   1.416       .  A
C1789      C1797   1.386       .  A
C1790      C1802   1.409       .  A
C1790      C1798   1.386       .  A
C1791      C1805   1.412       .  A
C1791      C1799   1.387       .  A
C1792      C1800   1.386       .  A
C1792      C1803   1.407       .  A
C1793      C1801   1.387       .  A
C1793      C1804   1.408       .  A
C1794      C1795   1.380       .  A
C1794      H1806   1.082       .  S
C1795      H1807   1.082       .  S
C1796      C1797   1.378       .  A
C1796      H1808   1.081       .  S
C1797      H1809   1.082       .  S
C1798      C1799   1.371       .  A
C1798      H1810   1.082       .  S
C1799      H1811   1.082       .  S
C1800      C1801   1.370       .  A
C1800      H1812   1.081       .  S
C1801      H1813   1.083       .  S
C1802      C1852   1.495       .  S
C1803      C1831   1.497       .  S
C1804      C1961   1.476       .  S
C1805      C1965   1.487       .  S
C1816      N1834   1.359       .  A
C1816      C1853   1.445       .  S
N1817      N1834   1.334       .  A
N1817      N1839   1.320       .  A
N1817     Co1854   2.120       .  S
C1818      N1843   1.344       .  A
C1818      H1863   1.081       .  S
C1818      C1856   1.461       .  S
H1819      C1860   1.081       .  S
C1820      N1844   1.340       .  A
C1820      H1849   1.081       .  S
C1820      C1824   1.465       .  S
Co1821     N1839   2.061       .  S
Co1821    Cl1865   2.442       .  S
N1822      C1860   1.345       .  A
N1822      N1829   1.319       .  A
N1822     Co1823   2.091       .  S
Co1823     N1826   2.085       .  S
C1824      N1862   1.351       .  A
N1825      N1832   1.325       .  A
N1825      N1855   1.328       .  A
N1825     Co1858   2.098       .  S
N1826      N1844   1.322       .  A
N1826      N1862   1.323       .  A
N1827      C1856   1.346       .  A
N1827      N1837   1.320       .  A
H1828      C1853   1.081       .  S
N1829      N1850   1.322       .  A
N1830      N1848   1.324       .  A
N1830      N1835   1.323       .  A
C1831      N1835   1.344       .  A
C1831      C1859   1.473       .  S
N1832      C1847   1.343       .  A
N1832     Co1854   2.101       .  S
C1833      N1861   1.336       .  A
C1833      H1867   1.081       .  S
C1833      C1836   1.451       .  S
C1836      N1857   1.359       .  A
N1837      N1843   1.317       .  A
N1838      C1864   1.339       .  A
N1838      N1840   1.325       .  A
N1839      C1853   1.332       .  A
N1840      N1868   1.327       .  A
H1841      C1864   1.081       .  S
H1842      C1859   1.082       .  S
N1845      N1857   1.334       .  A
N1845      N1861   1.318       .  A
C1846      N1850   1.344       .  A
C1846      C1860   1.461       .  S
C1847      H1851   1.081       .  S
C1847      C1866   1.468       .  S
N1848      C1859   1.345       .  A
C1852      N1868   1.357       .  A
C1852      C1864   1.455       .  S
Co1854    Cl1865   2.457       .  S
N1855      C1866   1.352       .  A
Co1858    Cl1865   2.435       .  S
N1869      C1874   1.360       .  A
N1869      C1873   1.362       .  A
N1869      H1901   1.050       .  S
N1870      C1877   1.356       .  A
N1870      C1878   1.354       .  A
N1871      C1876   1.354       .  A
N1871      C1875   1.347       .  A
N1871      H1902   1.050       .  S
N1872      C1879   1.346       .  A
N1872      C1880   1.349       .  A
C1873      C1881   1.388       .  A
C1873      C1889   1.436       .  A
C1874      C1890   1.434       .  A
C1874      C1882   1.388       .  A
C1875      C1883   1.390       .  A
C1875      C1892   1.413       .  A
C1876      C1891   1.411       .  A
C1876      C1884   1.384       .  A
C1877      C1889   1.417       .  A
C1877      C1885   1.385       .  A
C1878      C1892   1.420       .  A
C1878      C1886   1.387       .  A
C1879      C1887   1.391       .  A
C1879      C1890   1.410       .  A
C1880      C1888   1.381       .  A
C1880      C1891   1.398       .  A
C1881      C1882   1.381       .  A
C1881      H1893   1.083       .  S
C1882      H1894   1.082       .  S
C1883      C1884   1.371       .  A
C1883      H1895   1.082       .  S
C1884      H1896   1.081       .  S
C1885      C1886   1.375       .  A
C1885      H1897   1.082       .  S
C1886      H1898   1.082       .  S
C1887      C1888   1.367       .  A
C1887      H1899   1.079       .  S
C1888      H1900   1.082       .  S
C1891      C1938   1.480       .  S
C1892      C1942   1.483       .  S
N1903      C1908   1.357       .  A
N1903      C1907   1.358       .  A
N1903      H1935   1.042       .  S
N1904      C1911   1.359       .  A
N1904      C1912   1.353       .  A
N1905      C1910   1.367       .  A
N1905      C1909   1.360       .  A
N1905      H1936   1.038       .  S
N1906      C1913   1.348       .  A
N1906      C1914   1.355       .  A
C1907      C1915   1.384       .  A
C1907      C1923   1.418       .  A
C1908      C1924   1.423       .  A
C1908      C1916   1.389       .  A
C1909      C1917   1.391       .  A
C1909      C1926   1.436       .  A
C1910      C1925   1.434       .  A
C1910      C1918   1.385       .  A
C1911      C1923   1.418       .  A
C1911      C1919   1.384       .  A
C1912      C1926   1.421       .  A
C1912      C1920   1.389       .  A
C1913      C1921   1.389       .  A
C1913      C1924   1.413       .  A
C1914      C1922   1.385       .  A
C1914      C1925   1.413       .  A
C1915      C1916   1.370       .  A
C1915      H1927   1.082       .  S
C1916      H1928   1.080       .  S
C1917      C1918   1.381       .  A
C1917      H1929   1.083       .  S
C1918      H1930   1.082       .  S
C1919      C1920   1.379       .  A
C1919      H1931   1.081       .  S
C1920      H1932   1.082       .  S
C1921      C1922   1.375       .  A
C1921      H1933   1.082       .  S
C1922      H1934   1.082       .  S
C1923      C1949   1.514       .  S
C1924      C1946   1.490       .  S
C1937      C1938   1.341       .  D
C1937      H1939   1.087       .  S
C1938      H1940   1.085       .  S
C1941      C1942   1.336       .  D
C1941      H1943   1.088       .  S
C1942      H1944   1.087       .  S
C1945      C1946   1.344       .  D
C1945      H1947   1.085       .  S
C1946      H1948   1.088       .  S
C1949      C1950   1.353       .  D
C1949      H1951   1.088       .  S
C1950      H1952   1.083       .  S
C1953      C1954   1.350       .  D
C1953      H1955   1.087       .  S
C1954      H1956   1.086       .  S
C1957      C1958   1.338       .  D
C1957      H1959   1.087       .  S
C1958      H1960   1.084       .  S
C1961      C1962   1.345       .  D
C1961      H1963   1.087       .  S
C1962      H1964   1.086       .  S
C1965      C1966   1.343       .  D
C1965      H1967   1.088       .  S
C1966      H1968   1.086       .  S
C1969      C1970   1.341       .  D
C1969      H1971   1.086       .  S
C1970      H1972   1.084       .  S
C1973      C1974   1.354       .  D
C1973      H1975   1.086       .  S
C1974      H1976   1.086       .  S
C1977      C1978   1.346       .  D
C1977      H1979   1.087       .  S
C1978      H1980   1.087       .  S
C1981      C1982   1.348       .  D
C1981      H1983   1.087       .  S
C1982      H1984   1.086       .  S
C1985      C1986   1.349       .  D
C1985      H1987   1.084       .  S
C1986      H1988   1.084       .  S
C1989      C1990   1.342       .  D
C1989      H1991   1.084       .  S
C1990      H1992   1.087       .  S
C1993      C1994   1.340       .  D
C1993      H1995   1.086       .  S
C1994      H1996   1.088       .  S
C1997      C1998   1.344       .  D
C1997      H1999   1.086       .  S
C1998      H2000   1.088       .  S
