geometry optimzed in LAMMPS
_audit_creation_date              2020-11-30 
_audit_creation_method            'lammps2cif' 
_symmetry_space_group_name_H-M    'P1' 
_symmetry_Int_Tables_number       1 
_symmetry_cell_setting            triclinic 
loop_ 
_symmetry_equiv_pos_as_xyz 
  x,y,z 
_cell_length_a                    35.13020337 
_cell_length_b                    35.13015739477876 
_cell_length_c                    86.58779652727391 
_cell_angle_alpha                 89.90445578463039 
_cell_angle_beta                  89.97137170105728 
_cell_angle_gamma                 120.16042862498716 
loop_ 
_atom_site_label 
_atom_site_type_symbol 
_atom_site_fract_x 
_atom_site_fract_y 
_atom_site_fract_z 
_atom_site_charge 
C1          C  0.66786490  0.08607331  0.71952548     0.79800
N2          N  0.63264641  0.04690510  0.71552233    -0.78500
C3          C  0.63153447  0.02688593  0.70204823     0.82300
N4          N  0.66679253  0.04608267  0.69240877    -0.78400
C5          C  0.70239167  0.08550357  0.69615312     0.82400
N6          N  0.70278084  0.10540986  0.70969561    -0.80100
C7          C  0.77955396  0.10246547  0.66410641     0.79800
N8          N  0.74402849  0.08333193  0.67368241    -0.78500
C9          C  0.74041890  0.10640105  0.68566553     0.82300
N10         N  0.77244120  0.14883854  0.68804086    -0.78400
C11         C  0.80757126  0.16848693  0.67837669     0.82400
N12         N  0.81105602  0.14503806  0.66657104    -0.80100
C13         C  0.51251405  0.76120977  0.82889290     0.79800
N14         N  0.51941109  0.80216806  0.83179370    -0.78500
C15         C  0.53936112  0.82363786  0.84503092     0.82300
N16         N  0.55257282  0.80364875  0.85547301    -0.78400
C17         C  0.54589751  0.76265084  0.85267009     0.82400
N18         N  0.52545899  0.74140859  0.83944359    -0.80100
C19         C  0.60450291  0.74504211  0.88507850     0.79800
N20         N  0.58829211  0.76448604  0.87561011    -0.78500
C21         C  0.56161986  0.74150107  0.86358594     0.82300
N22         N  0.55114409  0.69911561  0.86115091    -0.78400
C23         C  0.56655078  0.67932324  0.87070533     0.82400
N24         N  0.59307728  0.70247761  0.88261799    -0.80100
C25         C  0.83120182  0.41969472  0.49943065     0.79800
N26         N  0.83389755  0.45862051  0.50287854    -0.78500
C27         C  0.85523584  0.48134389  0.51572271     0.82300
N28         N  0.87506062  0.46534100  0.52504544    -0.78400
C29         C  0.87257797  0.42630743  0.52176772     0.82400
N30         N  0.85045624  0.40341412  0.50894500    -0.80100
C31         C  0.94286008  0.42043419  0.55260841     0.79800
N32         N  0.92091903  0.43500618  0.54366627    -0.78500
C33         C  0.89536116  0.40999612  0.53171054     0.82300
N34         N  0.89179920  0.37029038  0.52875838    -0.78400
C35         C  0.91352740  0.35546819  0.53765938     0.82400
N36         N  0.93879096  0.38076115  0.54947632    -0.80100
C37         C  0.44686020  0.42192438  0.99977186     0.79800
N38         N  0.48259806  0.46132104  0.00332854    -0.78500
C39         C  0.48188460  0.48514961  0.01554049     0.82300
N40         N  0.44497949  0.46924752  0.02434959    -0.78400
C41         C  0.40917866  0.42961292  0.02105829     0.82400
N42         N  0.41019837  0.40612127  0.00873148    -0.80100
C43         C  0.33305450  0.41578361  0.05312743     0.79800
N44         N  0.29705889  0.37704062  0.04907644    -0.78500
C45         C  0.29687264  0.35553765  0.03600921     0.82300
N46         N  0.33340774  0.37324852  0.02698271    -0.78400
C47         C  0.36965919  0.41190329  0.03084829     0.82400
N48         N  0.36932890  0.43336944  0.04389084    -0.80100
C49         C  0.98890970  0.75924637  0.38293579     0.79800
N50         N  0.95410185  0.71896804  0.37966931    -0.78500
C51         C  0.95584587  0.69466484  0.36781257     0.82300
N52         N  0.99302091  0.71100507  0.35914768    -0.78400
C53         C  0.02806591  0.75133045  0.36224123     0.82400
N54         N  0.02606756  0.77530538  0.37423419    -0.80100
C55         C  0.10233099  0.76573599  0.32951012     0.79800
N56         N  0.06759124  0.74729234  0.33943201    -0.78500
C57         C  0.06672378  0.77006214  0.35203009     0.82300
N58         N  0.10083719  0.81128006  0.35472245    -0.78400
C59         C  0.13585694  0.82995656  0.34498471     0.82400
N60         N  0.13603523  0.80702636  0.33239039    -0.80100
C61         C  0.16289536  0.09114552  0.16625787     0.79800
N62         N  0.18542126  0.07599121  0.17455494    -0.78500
C63         C  0.20942231  0.09866832  0.18710810     0.82300
N64         N  0.21071316  0.13661764  0.19133324    -0.78400
C65         C  0.18772690  0.15170546  0.18325433     0.82400
N66         N  0.16445924  0.12897298  0.17067093    -0.80100
C67         C  0.28847612  0.09469787  0.21460597     0.79800
N68         N  0.28097481  0.05354704  0.21192452    -0.78500
C69         C  0.25070068  0.02656104  0.20154421     0.82300
N70         N  0.22794864  0.04158986  0.19331107    -0.78400
C71         C  0.23487872  0.08288892  0.19582029     0.82400
N72         N  0.26495446  0.10924421  0.20657386    -0.80100
C73         C  0.05540525  0.69127383  0.83412920     0.79800
N74         N  0.01590566  0.65538640  0.83756484    -0.78500
C75         C  0.98979611  0.65707882  0.84882468     0.82300
N76         N  0.00413760  0.69502829  0.85693233    -0.78400
C77         C  0.04375607  0.73102320  0.85365570     0.82400
N78         N  0.06906369  0.72909647  0.84214616    -0.80100
C79         C  0.05181861  0.81310165  0.88245764     0.79800
N80         N  0.03621067  0.77473210  0.87447851    -0.78500
C81         C  0.05935710  0.77228234  0.86225015     0.82300
N82         N  0.09814404  0.80815719  0.85811512    -0.78400
C83         C  0.11356748  0.84659781  0.86586607     0.82400
N84         N  0.09041435  0.84864888  0.87801374    -0.80100
C85         C  0.71275724  0.62620886  0.66320700     0.79800
N86         N  0.67083407  0.61677620  0.66563681    -0.78500
C87         C  0.64781950  0.59330025  0.67818131     0.82300
N88         N  0.66710024  0.57846054  0.68829633    -0.78400
C89         C  0.70913314  0.58757390  0.68593826     0.82400
N90         N  0.73203601  0.61187623  0.67344071    -0.80100
C91         C  0.72759577  0.52965229  0.71854492     0.79800
N92         N  0.70843822  0.54694907  0.70939134    -0.78500
C93         C  0.72946946  0.56977732  0.69633998     0.82300
N94         N  0.76927815  0.57489476  0.69246616    -0.78400
C95         C  0.78814354  0.55723873  0.70139222     0.82400
N96         N  0.76688597  0.53462269  0.71425117    -0.80100
C97         C  0.38981109  0.35633301  0.50108933     0.79800
N98         N  0.40747156  0.39321324  0.51008135    -0.78500
C99         C  0.38487951  0.39481725  0.52271466     0.82300
N100        N  0.34486542  0.35978828  0.52617443    -0.78400
C101        C  0.32701696  0.32335102  0.51720106     0.82400
N102        N  0.34965699  0.32201766  0.50476169    -0.80100
C103        C  0.39792925  0.46888814  0.55534152     0.79800
N104        N  0.38001165  0.43410713  0.54547345    -0.78500
C105        C  0.40351304  0.43337532  0.53301579     0.82300
N106        N  0.44458177  0.46787957  0.53038849    -0.78400
C107        C  0.46239309  0.50304870  0.54005756     0.82400
N108        N  0.43893161  0.50298307  0.55253464    -0.80100
C109        C  0.37353412  0.95213259  0.99441796     0.79800
N110        N  0.39351583  0.93910111  0.00489830    -0.78500
C111        C  0.37323067  0.92034013  0.01849438     0.82300
N112        N  0.33296546  0.91510592  0.02166386    -0.78400
C113        C  0.31271709  0.92806300  0.01127886     0.82400
N114        N  0.33311814  0.94619826  0.99767196    -0.80100
C115        C  0.39504059  0.87477759  0.05388493     0.79800
N116        N  0.43456946  0.87918754  0.05026008    -0.78500
C117        C  0.45474043  0.89696734  0.03666847     0.82300
N118        N  0.43478403  0.91058633  0.02642969    -0.78400
C119        C  0.39488304  0.90610939  0.02977260     0.82400
N120        N  0.37495347  0.88798314  0.04349937    -0.80100
C121        C  0.06650415  0.21386573  0.38845851     0.79800
N122        N  0.04875871  0.23360167  0.37982255    -0.78500
C123        C  0.06968641  0.25644799  0.36673421     0.82300
N124        N  0.10773872  0.25849289  0.36217880    -0.78400
C125        C  0.12479192  0.23777223  0.37048688     0.82400
N126        N  0.10430040  0.21611715  0.38364413    -0.80100
C127        C  0.05787879  0.32588963  0.33670095     0.79800
N128        N  0.07469149  0.30517757  0.34527494    -0.78500
C129        C  0.05130818  0.27862370  0.35737049     0.82300
N130        N  0.01061786  0.27217854  0.36063777    -0.78400
C131        C  0.99356308  0.29238421  0.35203467     0.82400
N132        N  0.01728542  0.31906033  0.34020740    -0.80100
C133        C  0.72138696  0.15821880  0.21405740     0.79800
N134        N  0.70558401  0.12096927  0.20546322    -0.78500
C135        C  0.73027759  0.11794232  0.19392765     0.82300
N136        N  0.77116934  0.15245533  0.19103781    -0.78400
C137        C  0.78715059  0.19003287  0.19945777     0.82400
N138        N  0.76212952  0.19251870  0.21093131    -0.80100
C139        C  0.71920442  0.03618493  0.16440638     0.79800
N140        N  0.67864040  0.00238690  0.16799560    -0.78500
C141        C  0.65473354  0.00511440  0.17978740     0.82300
N142        N  0.67213446  0.04278158  0.18816516    -0.78400
C143        C  0.71261984  0.07736548  0.18470300     0.82400
N144        N  0.73617299  0.07412582  0.17273115    -0.80100
C145        C  0.49974986  0.69652919  0.33389649     0.79800
N146        N  0.50778524  0.66321643  0.33651176    -0.78500
C147        C  0.53439890  0.66525951  0.34817682     0.82300
N148        N  0.55318906  0.70111427  0.35751202    -0.78400
C149        C  0.54599897  0.73519554  0.35492401     0.82400
N150        N  0.51946109  0.73293448  0.34301300    -0.80100
C151        C  0.61845981  0.81701525  0.38422226     0.79800
N152        N  0.59654268  0.77889111  0.37601528    -0.78500
C153        C  0.56825950  0.77517716  0.36450926     0.82300
N154        N  0.56179595  0.80947238  0.36141327    -0.78400
C155        C  0.58345534  0.84740040  0.36959365     0.82400
N156        N  0.61184186  0.85088727  0.38080970    -0.80100
C157        C  0.27106510  0.15024799  0.71888432     0.79800
N158        N  0.25093557  0.11179343  0.71094901    -0.78500
C159        C  0.22395680  0.10605304  0.69885408     0.82300
N160        N  0.21676868  0.13925640  0.69464190    -0.78400
C161        C  0.23648385  0.17792165  0.70254081     0.82400
N162        N  0.26327502  0.18298621  0.71464999    -0.80100
C163        C  0.15146317  0.01622569  0.67204323     0.79800
N164        N  0.17294802  0.05612886  0.67913975    -0.78500
C165        C  0.20153759  0.06334923  0.69086164     0.82300
N166        N  0.20927097  0.03069547  0.69528869    -0.78400
C167        C  0.18795877  0.99074297  0.68831269     0.82400
N168        N  0.15915328  0.98372209  0.67670792    -0.80100
C169        C  0.44233596  0.96883384  0.49659354     0.79800
N170        N  0.41005056  0.95637576  0.50731499    -0.78500
C171        C  0.41112195  0.93630209  0.52059388     0.82300
N172        N  0.44474132  0.92845681  0.52316192    -0.78400
C173        C  0.47701900  0.94025224  0.51242898     0.82400
N174        N  0.47563771  0.96060447  0.49927021    -0.80100
C175        C  0.34391918  0.89158078  0.55601010     0.79800
N176        N  0.31187556  0.90166183  0.55338626    -0.78500
C177        C  0.31154448  0.92263259  0.54022407     0.82300
N178        N  0.34411887  0.93384239  0.52969555    -0.78400
C179        C  0.37633376  0.92390841  0.53215780     0.82400
N180        N  0.37595181  0.90238669  0.54526465    -0.80100
C181        C  0.66787792  0.54378380  0.21937790     0.79800
N182        N  0.70415573  0.56154256  0.21018001    -0.78500
C183        C  0.70751975  0.58788787  0.19807854     0.82300
N184        N  0.67457639  0.59656262  0.19525508    -0.78400
C185        C  0.63819944  0.57886323  0.20437689     0.82400
N186        N  0.63524464  0.55253275  0.21632785    -0.80100
C187        C  0.78520743  0.64813038  0.16615708     0.79800
N188        N  0.74889496  0.63077303  0.17535777    -0.78500
C189        C  0.74664254  0.60698855  0.18812967     0.82300
N190        N  0.78078349  0.60072691  0.19166673    -0.78400
C191        C  0.81730574  0.61853942  0.18264662     0.82400
N192        N  0.81925713  0.64228826  0.17004416    -0.80100
C193        C  0.83763324  0.36787118  0.99747419     0.79800
N194        N  0.84679430  0.33509596  0.99938646    -0.78500
C195        C  0.87048625  0.33447465  0.01161650     0.82300
N196        N  0.88504653  0.36742864  0.02221006    -0.78400
C197        C  0.87629953  0.40080196  0.02040230     0.82400
N198        N  0.85242791  0.40085940  0.00800945    -0.80100
C199        C  0.93226410  0.47129915  0.05441002     0.79800
N200        N  0.92532776  0.50542741  0.05163289    -0.78500
C201        C  0.90267100  0.50603009  0.03901960     0.82300
N202        N  0.88662872  0.47166473  0.02904214    -0.78400
C203        C  0.89311855  0.43714176  0.03160888     0.82400
N204        N  0.91618499  0.43713411  0.04426869    -0.80100
C205        C  0.10858169  0.30735597  0.83032723     0.79800
N206        N  0.06998971  0.28390549  0.83811706    -0.78500
C207        C  0.06734587  0.25838183  0.85041483     0.82300
N208        N  0.10321887  0.25584838  0.85469382    -0.78400
C209        C  0.14174670  0.27872635  0.84683634     0.82400
N210        N  0.14404160  0.30446530  0.83475250    -0.80100
C211        C  0.98255855  0.18200080  0.87824581     0.79800
N212        N  0.02173187  0.20577596  0.87072723    -0.78500
C213        C  0.02569780  0.23330448  0.85891057     0.82300
N214        N  0.99074613  0.23763297  0.85487030    -0.78400
C215        C  0.95176438  0.21415712  0.86231546     0.82400
N216        N  0.94797096  0.18668125  0.87397099    -0.80100
O217        O  0.56159201  0.18329001  0.81822273    -0.86900
O218        O  0.66096111  0.38258565  0.87046955    -0.87100
O219        O  0.62567231  0.33204427  0.82003764    -0.88700
O220        O  0.68188607  0.27227010  0.84889031    -0.87500
O221        O  0.65794479  0.22586564  0.86981619    -0.87100
O222        O  0.56240242  0.33590626  0.82009531    -0.88400
O223        O  0.68188295  0.35962606  0.84897662    -0.86900
O224        O  0.62854711  0.24709135  0.81969437    -0.86500
Zr225      Zr  0.62396984  0.28714950  0.84171901     2.84300
O226        O  0.62362487  0.28572808  0.86872394    -1.08500
O227        O  0.55263783  0.25285836  0.83181860    -1.09200
C228        C  0.60115585  0.21014181  0.81334220     1.06200
C229        C  0.68816869  0.38833885  0.85938156     1.06200
C230        C  0.60029301  0.34549398  0.81454060     1.09100
C231        C  0.68664727  0.24872713  0.85931045     1.06900
H232        H  0.60438991  0.35458690  0.84723312     0.32500
O233        O  0.58900008  0.32438273  0.85073424    -1.29400
H234        H  0.60172525  0.19895825  0.84619423     0.32200
O235        O  0.58680054  0.21385898  0.84995497    -1.31100
O236        O  0.54145354  0.32111201  0.89900808    -0.86900
O237        O  0.44131740  0.12023216  0.84656519    -0.88400
O238        O  0.53059401  0.36156748  0.84944755    -0.87000
O239        O  0.62909162  0.25451389  0.89926066    -0.87000
O240        O  0.57008063  0.13943843  0.86972587    -0.86700
O241        O  0.47622814  0.24892354  0.81842447    -0.86500
O242        O  0.41927143  0.23131690  0.86908527    -0.86900
O243        O  0.47285353  0.16601997  0.89745164    -0.86400
O244        O  0.44457339  0.27642096  0.84788289    -0.87400
O245        O  0.53706920  0.16370003  0.89733297    -0.86600
O246        O  0.57266067  0.38050720  0.87135907    -0.87000
O247        O  0.47326308  0.18207813  0.81800801    -0.86700
O248        O  0.52774498  0.11938941  0.84776146    -0.86400
O249        O  0.63199908  0.32128036  0.89912387    -0.86800
O250        O  0.47516008  0.25642396  0.89852659    -0.87100
O251        O  0.41945305  0.14151179  0.86833996    -0.88400
Zr252      Zr  0.58754694  0.32200655  0.87772208     2.83100
Zr253      Zr  0.51516857  0.17957747  0.84013751     2.83500
Zr254      Zr  0.51719336  0.28946094  0.84120710     2.84100
Zr255      Zr  0.58497903  0.21245599  0.87703147     2.83400
Zr256      Zr  0.47690513  0.21436578  0.87639296     2.84200
O257        O  0.51331095  0.17848579  0.86719095    -1.09000
O258        O  0.51550648  0.28761833  0.86817154    -1.08500
C259        C  0.50225586  0.29468271  0.90420378     1.06200
C260        C  0.41364423  0.11390154  0.85749170     1.08800
C261        C  0.55161914  0.38797517  0.86070589     1.06400
C262        C  0.64229292  0.29350615  0.90468012     1.06700
C263        C  0.54831535  0.11219102  0.85878465     1.06300
C264        C  0.46440715  0.21092700  0.81243333     1.05900
C265        C  0.41510909  0.25438891  0.85821478     1.06300
C266        C  0.49823510  0.15199904  0.90254704     1.05800
H267        H  0.44911189  0.20171071  0.84530574     0.32500
O268        O  0.47871733  0.21587273  0.84930251    -1.30100
H269        H  0.54811869  0.24770845  0.89744533     0.32500
O270        O  0.54893254  0.24871710  0.88628140    -1.31400
O271        O  0.80786325  0.84730571  0.98488411    -0.86900
O272        O  0.90749190  0.05205809  0.03440827    -0.87100
O273        O  0.77629577  0.94065734  0.01366187    -0.88700
O274        O  0.89035378  0.99745865  0.98375819    -0.87500
O275        O  0.95646834  0.99958205  0.98352342    -0.87100
O276        O  0.75520696  0.89580216  0.03503347    -0.88400
O277        O  0.86359318  0.02863797  0.01287229    -0.86900
O278        O  0.80516913  0.91117330  0.98480019    -0.86500
Zr279      Zr  0.84936562  0.95542231  0.00637823     2.84300
O280        O  0.92214699  0.99390054  0.01510575    -1.08500
O281        O  0.81431931  0.88293766  0.01558001    -1.09200
C282        C  0.79553614  0.87342455  0.97913676     1.06200
C283        C  0.88570734  0.05731500  0.02339679     1.06200
C284        C  0.74874362  0.91776400  0.02441687     1.09100
C285        C  0.92821940  0.00884343  0.97766902     1.06900
H286        H  0.83417069  0.97109542  0.03703761     0.32500
O287        O  0.84952172  0.95650803  0.03338892    -1.29400
H288        H  0.88591661  0.91980679  0.98631700     0.32200
O289        O  0.88648688  0.92022381  0.99746464    -1.31100
O290        O  0.96682538  0.99518916  0.06397174    -0.86900
O291        O  0.86796850  0.78987748  0.01407100    -0.88400
O292        O  0.81234910  0.92809038  0.06388682    -0.87000
O293        O  0.01663631  0.03349883  0.01253682    -0.87000
O294        O  0.95840216  0.91575440  0.98362022    -0.86700
O295        O  0.75655167  0.81074600  0.03568157    -0.86500
O296        O  0.88250157  0.84424243  0.06485392    -0.86900
O297        O  0.99826263  0.90159839  0.03470912    -0.86400
O298        O  0.81647708  0.84269102  0.06482857    -0.87400
O299        O  0.01892075  0.94526444  0.01302811    -0.86600
O300        O  0.87825414  0.99323873  0.06433464    -0.87000
O301        O  0.77792537  0.79023828  0.01362447    -0.86700
O302        O  0.89456207  0.84863035  0.98446935    -0.86400
O303        O  0.99453088  0.05313871  0.03461594    -0.86800
O304        O  0.96961821  0.93143670  0.06430740    -0.87100
O305        O  0.91203756  0.81445716  0.03550179    -0.88400
Zr306      Zr  0.92217411  0.99388253  0.04218836     2.83100
Zr307      Zr  0.85203205  0.84797225  0.00677947     2.83500
Zr308      Zr  0.81519021  0.88415695  0.04257451     2.84100
Zr309      Zr  0.95931743  0.95868731  0.00599177     2.83400
Zr310      Zr  0.92537837  0.88715117  0.04249903     2.84200
O311        O  0.92505080  0.88627486  0.01541952    -1.09000
O312        O  0.88770683  0.92181981  0.05157062    -1.08500
C313        C  0.97938406  0.96945564  0.06985700     1.06200
C314        C  0.89018054  0.78524401  0.02510955     1.08800
C315        C  0.83921724  0.96635703  0.06960135     1.06400
C316        C  0.02233751  0.06038927  0.02365535     1.06700
C317        C  0.93157331  0.87693738  0.97825133     1.06300
C318        C  0.75017907  0.78387744  0.02451715     1.05900
C319        C  0.84409522  0.83256833  0.07057991     1.06300
C320        C  0.02564649  0.92366340  0.02376291     1.05800
H321        H  0.83784710  0.81867219  0.03769961     0.32500
O322        O  0.85234815  0.84848568  0.03382828    -1.30100
H323        H  0.99017327  0.97509529  0.03671365     0.32500
O324        O  0.96014873  0.95943316  0.03310414    -1.31400
O325        O  0.63397486  0.32766059  0.39753992    -0.86900
O326        O  0.53405714  0.12305759  0.34705367    -0.87100
O327        O  0.54885944  0.17753272  0.39814689    -0.88700
O328        O  0.66502243  0.23552218  0.36857850    -0.87500
O329        O  0.68567704  0.27786858  0.34660760    -0.87100
O330        O  0.48296743  0.17628000  0.39834315    -0.88400
O331        O  0.57812873  0.14747065  0.36848788    -0.86900
O332        O  0.63632036  0.26385591  0.39767247    -0.86500
Zr333      Zr  0.59167858  0.22010840  0.37587824     2.84300
O334        O  0.59165423  0.21898428  0.34884444    -1.08500
O335        O  0.55459881  0.25532436  0.38502314    -1.09200
C336        C  0.64651701  0.30184223  0.40335740     1.06200
C337        C  0.55628537  0.11832963  0.35803857     1.06200
C338        C  0.51073232  0.16605344  0.40401455     1.09100
C339        C  0.69248720  0.25720662  0.35763164     1.06900
H340        H  0.50443077  0.15255449  0.37094401     0.32500
O341        O  0.51897673  0.18237332  0.36704388    -1.29400
H342        H  0.65726194  0.30758862  0.37024896     0.32200
O343        O  0.62727434  0.29225387  0.36655714    -1.31100
O344        O  0.47533214  0.18102664  0.31789138    -0.86900
O345        O  0.57646842  0.38599746  0.36758101    -0.88400
O346        O  0.42360372  0.14470840  0.36891220    -0.87000
O347        O  0.62739408  0.24668202  0.31807101    -0.87000
O348        O  0.68532051  0.36434357  0.34645300    -0.86700
O349        O  0.47986372  0.26372242  0.39691571    -0.86500
O350        O  0.44316522  0.27330876  0.34650725    -0.86900
O351        O  0.56201074  0.33664595  0.31857905    -0.86400
O352        O  0.42224875  0.23023233  0.36827397    -0.87400
O353        O  0.62747731  0.33707735  0.31803243    -0.86600
O354        O  0.44627903  0.12291657  0.34747393    -0.87000
O355        O  0.54621771  0.32851590  0.39727089    -0.86700
O356        O  0.66321887  0.38567617  0.36804878    -0.86400
O357        O  0.56247558  0.18071340  0.31805958    -0.86800
O358        O  0.47563555  0.24651240  0.31732664    -0.87100
O359        O  0.53190413  0.36246099  0.34623396    -0.88400
Zr360      Zr  0.51902299  0.18160870  0.33994075     2.83100
Zr361      Zr  0.59008371  0.32736753  0.37555759     2.83500
Zr362      Zr  0.48207574  0.21820757  0.37593526     2.84100
Zr363      Zr  0.62651311  0.29122235  0.33949257     2.83400
Zr364      Zr  0.51717455  0.28918092  0.33961638     2.84200
O365        O  0.58969316  0.32666275  0.34853904    -1.09000
O366        O  0.48150953  0.21677594  0.34885585    -1.08500
C367        C  0.46479776  0.20819730  0.31187033     1.06200
C368        C  0.55445092  0.39127285  0.35667226     1.08800
C369        C  0.41822318  0.11688906  0.35819579     1.06400
C370        C  0.60086054  0.20813532  0.31248564     1.06700
C371        C  0.69128906  0.39202462  0.35726059     1.06300
C372        C  0.50710495  0.30209083  0.40251050     1.05900
C373        C  0.41537274  0.25111039  0.35733070     1.06300
C374        C  0.60071080  0.34944741  0.31299811     1.05800
H375        H  0.50216176  0.30535034  0.37016158     0.32500
O376        O  0.51738346  0.29047189  0.36662295    -1.30100
H377        H  0.55438218  0.25400372  0.31925808     0.32500
O378        O  0.55414759  0.25388033  0.33045381    -1.31400
O379        O  0.35709548  0.70099297  0.67997031    -0.86900
O380        O  0.15545601  0.59906566  0.73224256    -0.87100
O381        O  0.25035142  0.72319457  0.70428665    -0.88700
O382        O  0.30877897  0.66048887  0.73081652    -0.87500
O383        O  0.30696228  0.59431802  0.73015588    -0.87100
O384        O  0.20815903  0.70541223  0.68232857    -0.88400
O385        O  0.22261015  0.66251304  0.73311425    -0.86900
O386        O  0.33648087  0.72079130  0.70229214    -0.86500
Zr387      Zr  0.26332449  0.66288538  0.71003664     2.84300
O388        O  0.22678717  0.58986948  0.71863028    -1.08500
O389        O  0.26275139  0.66577364  0.68297904    -1.09200
C390        C  0.36384468  0.72768969  0.69118349     1.06200
C391        C  0.18373470  0.63597823  0.73856129     1.06200
C392        C  0.23007229  0.73157506  0.69356319     1.09100
C393        C  0.31986781  0.63282442  0.73593131     1.06900
H394        H  0.17626425  0.64457341  0.70540765     0.32500
O395        O  0.19061609  0.62958349  0.70125275    -1.29400
H396        H  0.32807098  0.64094592  0.70337197     0.32200
O397        O  0.29803279  0.62655676  0.69982102    -1.31100
O398        O  0.09331032  0.48526455  0.70204892    -0.86900
O399        O  0.29768557  0.58658734  0.65069812    -0.88400
O400        O  0.11643451  0.61559334  0.68138743    -0.87000
O401        O  0.21566710  0.50489425  0.72918726    -0.87000
O402        O  0.33443113  0.56865424  0.70079659    -0.86700
O403        O  0.23308676  0.67693985  0.65236650    -0.86500
O404        O  0.14225567  0.52339035  0.65175922    -0.86900
O405        O  0.19950048  0.46051231  0.67860592    -0.86400
O406        O  0.14381731  0.58953252  0.65230274    -0.87400
O407        O  0.24762941  0.48168201  0.69901081    -0.86600
O408        O  0.09591259  0.57111725  0.70284964    -0.87000
O409        O  0.29836815  0.67679162  0.65188768    -0.86700
O410        O  0.35622112  0.61436907  0.67965116    -0.86400
O411        O  0.15277760  0.50945299  0.73064557    -0.86800
O412        O  0.11334051  0.46489590  0.67970752    -0.87100
O413        O  0.23222933  0.52099751  0.65093444    -0.88400
Zr414      Zr  0.15435253  0.55645580  0.70969172     2.83100
Zr415      Zr  0.29727992  0.62913111  0.67279190     2.83500
Zr416      Zr  0.19009343  0.63154927  0.67411573     2.84100
Zr417      Zr  0.26117282  0.55318963  0.70819272     2.83400
Zr418      Zr  0.18784375  0.52171107  0.67258623     2.84200
O419        O  0.26064715  0.55585184  0.68117038    -1.09000
O420        O  0.15359657  0.55857226  0.68269633    -1.08500
C421        C  0.08574136  0.45872984  0.69066328     1.06200
C422        C  0.27068134  0.54798892  0.64529355     1.08800
C423        C  0.08909229  0.59285872  0.69224457     1.06400
C424        C  0.17801918  0.49478342  0.73522442     1.06700
C425        C  0.36240283  0.59180197  0.69016038     1.06300
C426        C  0.27147356  0.68881026  0.64667863     1.05900
C427        C  0.13079130  0.55079163  0.64670498     1.06300
C428        C  0.22319143  0.45405570  0.68850937     1.05800
H429        H  0.22434524  0.59551834  0.65269553     0.32500
O430        O  0.22465039  0.59478375  0.66383235    -1.30100
H431        H  0.17267259  0.48872155  0.70289221     0.32500
O432        O  0.18826937  0.51899005  0.69958116    -1.31400
O433        O  0.23468234  0.52085887  0.15250551    -0.86900
O434        O  0.33335839  0.72306901  0.20387988    -0.87100
O435        O  0.29505959  0.67287884  0.15278530    -0.88700
O436        O  0.35602575  0.61517160  0.18139718    -0.87500
O437        O  0.33324064  0.57041400  0.20280704    -0.87100
O438        O  0.22829490  0.66996269  0.15242732    -0.88400
O439        O  0.35456887  0.70228329  0.18182425    -0.86900
O440        O  0.29938471  0.58688994  0.15226685    -0.86500
Zr441      Zr  0.29671547  0.62872002  0.17436001     2.84300
O442        O  0.29653645  0.62832008  0.20143862    -1.08500
O443        O  0.22445231  0.59154645  0.16496318    -1.09200
C444        C  0.27295669  0.54819375  0.14676299     1.06200
C445        C  0.36057642  0.72975288  0.19275868     1.06200
C446        C  0.26732134  0.68324117  0.14717384     1.09100
C447        C  0.36128340  0.59241998  0.19204852     1.06900
H448        H  0.27405972  0.69369045  0.17973577     0.32500
O449        O  0.25945620  0.66372323  0.18347113    -1.29400
H450        H  0.27657350  0.54116577  0.17971239     0.32200
O451        O  0.26140434  0.55594880  0.18340885    -1.31100
O452        O  0.21433436  0.66404263  0.23207617    -0.86900
O453        O  0.11607407  0.46027863  0.18110808    -0.88400
O454        O  0.19969167  0.69867587  0.18130718    -0.87000
O455        O  0.30603512  0.59999609  0.23197084    -0.87000
O456        O  0.24407762  0.48113853  0.20397303    -0.86700
O457        O  0.14277845  0.58041005  0.15257548    -0.86500
O458        O  0.09102533  0.56610939  0.20297335    -0.86900
O459        O  0.15274360  0.51184556  0.23278409    -0.86400
O460        O  0.11339339  0.60982734  0.18135853    -0.87400
O461        O  0.21862844  0.51301841  0.23291830    -0.86600
O462        O  0.24446832  0.72148821  0.20263309    -0.87000
O463        O  0.14408472  0.51588221  0.15226413    -0.86700
O464        O  0.20284385  0.46045986  0.18178804    -0.86400
O465        O  0.30438275  0.66440857  0.23233742    -0.86800
O466        O  0.14855974  0.59891577  0.23172705    -0.87100
O467        O  0.09493491  0.47986534  0.20347566    -0.88400
Zr468      Zr  0.25956011  0.66368377  0.21056424     2.83100
Zr469      Zr  0.18918000  0.51923530  0.17422314     2.83500
Zr470      Zr  0.18679020  0.62585349  0.17437210     2.84100
Zr471      Zr  0.26049596  0.55562995  0.21048505     2.83400
Zr472      Zr  0.15136060  0.55423324  0.21055418     2.84200
O473        O  0.18817975  0.51869842  0.20132995    -1.09000
O474        O  0.18698687  0.62672101  0.20142856    -1.08500
C475        C  0.17520685  0.63743812  0.23735155     1.06200
C476        C  0.08895950  0.45314489  0.19227971     1.08800
C477        C  0.22223508  0.72710196  0.19186029     1.06400
C478        C  0.31663399  0.63792854  0.23779381     1.06700
C479        C  0.22286815  0.45356509  0.19301000     1.06300
C480        C  0.13197436  0.54234876  0.14675030     1.05900
C481        C  0.08493122  0.58728459  0.19191327     1.06300
C482        C  0.18036517  0.50161795  0.23862734     1.05800
H483        H  0.12144809  0.53818530  0.17970318     0.32500
O484        O  0.15137441  0.55364294  0.18346220    -1.30100
H485        H  0.22384726  0.59147379  0.23091624     0.32500
O486        O  0.22379733  0.59123250  0.21970375    -1.31400
O487        O  0.88260298  0.99414683  0.56619535    -0.86900
O488        O  0.77759427  0.78992525  0.51595490    -0.87100
O489        O  0.75722094  0.90003413  0.53741706    -0.88700
O490        O  0.81384918  0.84054758  0.56660188    -0.87500
O491        O  0.87666144  0.83581021  0.56603881    -0.87100
O492        O  0.78194204  0.94600545  0.51637749    -0.88400
O493        O  0.75766438  0.81231615  0.53788270    -0.86900
O494        O  0.81566187  0.93032770  0.56618680    -0.86500
Zr495      Zr  0.81601206  0.88553418  0.54469907     2.84300
O496        O  0.84999976  0.84749047  0.53527734    -1.08500
O497        O  0.85505304  0.95873035  0.53631477    -1.09200
C498        C  0.84335242  0.96890084  0.57149389     1.06200
C499        C  0.75080214  0.78421780  0.52714380     1.06200
C500        C  0.75271196  0.92337390  0.52678754     1.09100
C501        C  0.83927159  0.82689589  0.57195369     1.06900
H502        H  0.78628528  0.87251717  0.51375547     0.32500
O503        O  0.81605229  0.88659169  0.51759081    -1.29400
H504        H  0.88749189  0.91783937  0.56507488     0.32200
O505        O  0.88820869  0.91841159  0.55391355    -1.31100
O506        O  0.89476958  0.84908189  0.48624488    -0.86900
O507        O  0.00208295  0.04847929  0.53836633    -0.88400
O508        O  0.81423465  0.92099330  0.48645440    -0.87000
O509        O  0.90328118  0.80566565  0.53677061    -0.87000
O510        O  0.96356501  0.92068114  0.56741993    -0.86700
O511        O  0.87243356  0.03366511  0.51739162    -0.86500
O512        O  0.96445336  0.00167232  0.48744528    -0.86900
O513        O  0.01905488  0.93971100  0.51642982    -0.86400
O514        O  0.90118574  0.00550066  0.48780257    -0.87400
O515        O  0.99597353  0.89463092  0.53772932    -0.86600
O516        O  0.81133684  0.85428191  0.48581245    -0.87000
O517        O  0.91755062  0.05303694  0.53858205    -0.86700
O518        O  0.96714515  0.98764804  0.56795727    -0.86400
O519        O  0.86205772  0.78787227  0.51461637    -0.86800
O520        O  0.96082894  0.91401646  0.48629799    -0.87100
O521        O  0.02126799  0.02611432  0.51630759    -0.88400
Zr522      Zr  0.85069850  0.84893490  0.50823231     2.83100
Zr523      Zr  0.92756550  0.99138907  0.54535189     2.83500
Zr524      Zr  0.85540110  0.96018318  0.50931154     2.84100
Zr525      Zr  0.92219168  0.88020611  0.54452324     2.83400
Zr526      Zr  0.96115520  0.95485040  0.50896089     2.84200
O527        O  0.96162653  0.95338328  0.53601600    -1.09000
O528        O  0.88910295  0.92200199  0.49983713    -1.08500
C529        C  0.93313834  0.87620110  0.48053648     1.06200
C530        C  0.02875614  0.05402049  0.52716789     1.08800
C531        C  0.80292808  0.88341345  0.48020764     1.06400
C532        C  0.88175960  0.77932766  0.52552749     1.06700
C533        C  0.97522398  0.95843041  0.57369108     1.06300
C534        C  0.89628183  0.06090277  0.52808370     1.05900
C535        C  0.93919929  0.01558313  0.48210346     1.06300
C536        C  0.02471156  0.91759577  0.52721904     1.05800
H537        H  0.94400336  0.02357760  0.51483395     0.32500
O538        O  0.92785016  0.99341922  0.51835056    -1.30100
H539        H  0.93729948  0.86618600  0.51354699     0.32500
O540        O  0.92304734  0.88166027  0.51742767    -1.31400
C541        C  0.93935989  0.03399587  0.96276733    -0.20300
C542        C  0.97473664  0.04008647  0.95313754     0.36000
C543        C  0.98218926  0.06261393  0.93897867    -0.26200
C544        C  0.95607186  0.08030643  0.93423936     0.02400
C545        C  0.92079966  0.07428694  0.94380556     0.27200
C546        C  0.91268968  0.05101766  0.95778308    -0.25400
N547        N  0.00253085  0.02269000  0.95747231    -0.82800
H548        H  0.00851597  0.06613387  0.93151229     0.13000
C549        C  0.96515723  0.10416871  0.91912989     0.02400
N550        N  0.89333068  0.09198768  0.93933832    -0.81300
H551        H  0.88537295  0.04658831  0.96489411     0.17800
C552        C  0.93033111  0.09211282  0.90873807    -0.26200
C553        C  0.93595446  0.11586070  0.89509325     0.35900
C554        C  0.97738760  0.15263635  0.89148130    -0.20200
C555        C  0.01323266  0.16272919  0.90121741    -0.25400
C556        C  0.00758996  0.13897665  0.91502491     0.27200
H557        H  0.89816631  0.06416536  0.91130418     0.13000
N558        N  0.89936460  0.10205996  0.88484033    -0.82700
H559        H  0.04535149  0.19039136  0.89840800     0.17800
N560        N  0.04456483  0.15078763  0.92500330    -0.81300
H561        H  0.88848087  0.06955184  0.88156804     0.33500
H562        H  0.87390289  0.10262001  0.89090272     0.38000
H563        H  0.07341030  0.17642525  0.92018433     0.33400
H564        H  0.03896913  0.16271422  0.93529660     0.30100
H565        H  0.86852228  0.08418592  0.94750527     0.33400
H566        H  0.91294822  0.12628904  0.93919959     0.30100
H567        H  0.02230056  0.04182689  0.96660696     0.38000
H568        H  0.02412519  0.02653830  0.94850120     0.33500
C569        C  0.91451060  0.22055758  0.85858257    -0.20300
C570        C  0.87121565  0.18448462  0.85782023     0.36000
C571        C  0.83591869  0.19228674  0.85654580    -0.26200
C572        C  0.84330311  0.23532636  0.85591354     0.02400
C573        C  0.88663787  0.27140047  0.85599505     0.27200
C574        C  0.92199138  0.26356377  0.85712853    -0.25400
N575        N  0.86336420  0.14021332  0.85847793    -0.82800
H576        H  0.80242571  0.16481123  0.85644581     0.13000
C577        C  0.80498834  0.24170936  0.85661749     0.02400
N578        N  0.89443357  0.31569343  0.85592283    -0.81300
H579        H  0.95534894  0.29115740  0.85774186     0.17800
C580        C  0.78581785  0.23934050  0.87104694    -0.26200
C581        C  0.74754237  0.24229113  0.87231668     0.35900
C582        C  0.72794377  0.24722530  0.85879481    -0.20200
C583        C  0.74769141  0.25013507  0.84436454    -0.25400
C584        C  0.78594386  0.24716953  0.84312649     0.27200
H585        H  0.80072736  0.23488458  0.88133647     0.13000
N586        N  0.72881815  0.24066016  0.88724795    -0.82700
H587        H  0.73257530  0.25360327  0.83395554     0.17800
N588        N  0.80430810  0.24770403  0.82822177    -0.81300
H589        H  0.74711603  0.23662215  0.89595307     0.33500
H590        H  0.73125192  0.27119624  0.88915456     0.38000
H591        H  0.78525723  0.25026457  0.81945341     0.33400
H592        H  0.83523905  0.27604892  0.82746941     0.30100
H593        H  0.92813707  0.33832735  0.85673629     0.33400
H594        H  0.88436970  0.32138964  0.84525684     0.30100
H595        H  0.87788097  0.13536116  0.84869928     0.38000
H596        H  0.82966117  0.11747822  0.85779985     0.33500
C597        C  0.16245392  0.46440095  0.74859941    -0.20300
C598        C  0.16564950  0.42588899  0.74895077     0.36000
C599        C  0.15149891  0.39888465  0.76220013    -0.26200
C600        C  0.13457213  0.40987477  0.77503780     0.02400
C601        C  0.13062898  0.44781329  0.77455813     0.27200
C602        C  0.14409851  0.47441057  0.76126773    -0.25400
N603        N  0.18315964  0.41440319  0.73589752    -0.82800
H604        H  0.15466716  0.36977412  0.76270083     0.13000
C605        C  0.12527856  0.38397847  0.78948387     0.02400
N606        N  0.11404294  0.45971771  0.78775471    -0.81300
H607        H  0.14151957  0.50388136  0.76097050     0.17800
C608        C  0.15619158  0.40126279  0.80143064    -0.26200
C609        C  0.15033153  0.37742028  0.81510798     0.35900
C610        C  0.11260070  0.33535990  0.81690251    -0.20200
C611        C  0.08065800  0.31875395  0.80517561    -0.25400
C612        C  0.08684928  0.34262258  0.79137730     0.27200
H613        H  0.18540830  0.43328829  0.79994294     0.13000
N614        N  0.18267671  0.39567500  0.82718687    -0.82700
H615        H  0.05173996  0.28646591  0.80653964     0.17800
N616        N  0.05487200  0.32479579  0.77918491    -0.81300
H617        H  0.20856469  0.42669773  0.82401137     0.33500
H618        H  0.16758201  0.40044834  0.83681150     0.38000
H619        H  0.02880073  0.29381655  0.78230422     0.33400
H620        H  0.04160290  0.34539252  0.77783792     0.30100
H621        H  0.11390688  0.48896974  0.78565218     0.33400
H622        H  0.08123198  0.43511575  0.78934120     0.30100
H623        H  0.16181356  0.40805526  0.72659941     0.38000
H624        H  0.18342572  0.38523888  0.73804927     0.33500
C625        C  0.18111433  0.27545174  0.85090015    -0.20300
C626        C  0.17821623  0.23825808  0.85843055     0.36000
C627        C  0.21662367  0.23566830  0.86048482    -0.26200
C628        C  0.25779676  0.26946526  0.85534245     0.02400
C629        C  0.26091829  0.30743154  0.84851840     0.27200
C630        C  0.22267725  0.30987374  0.84631233    -0.25400
N631        N  0.13644159  0.20271577  0.86357799    -0.82800
H632        H  0.21421595  0.20642339  0.86564758     0.13000
C633        C  0.29708086  0.26394619  0.85636991     0.02400
N634        N  0.30297717  0.34328417  0.84373632    -0.81300
H635        H  0.22544878  0.33893716  0.84085079     0.17800
C636        C  0.32107376  0.26839267  0.84288910    -0.26200
C637        C  0.35898516  0.26463572  0.84315768     0.35900
C638        C  0.37357195  0.25609971  0.85733557    -0.20200
C639        C  0.34873545  0.25040136  0.87079069    -0.25400
C640        C  0.31076534  0.25443308  0.87046085     0.27200
H641        H  0.30990630  0.27461263  0.83201062     0.13000
N642        N  0.38235318  0.26905660  0.82899987    -0.82700
H643        H  0.35958571  0.24390459  0.88168019     0.17800
N644        N  0.28647263  0.24960114  0.88440048    -0.81300
H645        H  0.36779375  0.27610435  0.81973521     0.33500
H646        H  0.37953678  0.23856581  0.82663214     0.38000
H647        H  0.30084961  0.24277678  0.89377459     0.33400
H648        H  0.28865577  0.27985164  0.88668462     0.30100
H649        H  0.29957583  0.36861087  0.83880931     0.33400
H650        H  0.32221735  0.35630206  0.85364137     0.30100
H651        H  0.11755606  0.18746676  0.85377214     0.38000
H652        H  0.14045514  0.17880818  0.86935721     0.33500
C653        C  0.95762178  0.47265234  0.06841668    -0.20300
C654        C  0.98522605  0.45402034  0.06895322     0.36000
C655        C  0.01180346  0.46096106  0.08209973    -0.26200
C656        C  0.01128384  0.48604012  0.09464378     0.02400
C657        C  0.98176833  0.50216084  0.09446181     0.27200
C658        C  0.95570612  0.49567615  0.08137174    -0.25400
N659        N  0.98752572  0.42964342  0.05602233    -0.82800
H660        H  0.03437074  0.44841950  0.08229084     0.13000
C661        C  0.04405920  0.49891492  0.10737336     0.02400
N662        N  0.97893464  0.52574359  0.10755994    -0.81300
H663        H  0.93394112  0.50917495  0.08124863     0.17800
C664        C  0.07314061  0.54388342  0.10990755    -0.26200
C665        C  0.10274898  0.55869167  0.12235447     0.35900
C666        C  0.10311693  0.52780871  0.13277650    -0.20200
C667        C  0.07503874  0.48251124  0.12988182    -0.25400
C668        C  0.04557987  0.46777507  0.11726638     0.27200
H669        H  0.07255129  0.56769683  0.10208352     0.13000
N670        N  0.13270092  0.60505818  0.12431895    -0.82700
H671        H  0.07523987  0.45850687  0.13770360     0.17800
N672        N  0.01680655  0.42150439  0.11462374    -0.81300
H673        H  0.12774731  0.62326152  0.11580427     0.33500
H674        H  0.16460918  0.61062350  0.12270973     0.38000
H675        H  0.02204595  0.40293894  0.12291080     0.33400
H676        H  0.98444194  0.41471487  0.11609101     0.30100
H677        H  0.95585342  0.53569180  0.10559735     0.33400
H678        H  0.96721739  0.50385888  0.11689418     0.30100
H679        H  0.00150975  0.45159564  0.04678170     0.38000
H680        H  0.00868495  0.41754874  0.05842221     0.33500
C681        C  0.89052059  0.74313625  0.02614405    -0.20300
C682        C  0.89124965  0.72444624  0.04060702     0.36000
C683        C  0.89214504  0.68525916  0.04112534    -0.26200
C684        C  0.89375669  0.66420751  0.02763220     0.02400
C685        C  0.89220373  0.68188260  0.01313913     0.27200
C686        C  0.88998641  0.72090016  0.01255219    -0.25400
N687        N  0.89015346  0.74372643  0.05505717    -0.82800
H688        H  0.89223181  0.67130276  0.05229469     0.13000
C689        C  0.89777146  0.62419446  0.02928416     0.02400
N690        N  0.89361715  0.66067820  0.99914311    -0.81300
H691        H  0.88905976  0.73463060  0.00144698     0.17800
C692        C  0.86515967  0.58378546  0.02324359    -0.26200
C693        C  0.86530351  0.54443969  0.02639356     0.35900
C694        C  0.89922971  0.54577299  0.03563521    -0.20200
C695        C  0.93196379  0.58646370  0.04148839    -0.25400
C696        C  0.93192637  0.62556069  0.03826785     0.27200
H697        H  0.83861768  0.58272680  0.01653601     0.13000
N698        N  0.83046796  0.50321266  0.02062887    -0.82700
H699        H  0.95838459  0.58805246  0.04841985     0.17800
N700        N  0.96652711  0.66685689  0.04410954    -0.81300
H701        H  0.80860659  0.50811745  0.01388589     0.33500
H702        H  0.81252292  0.48434506  0.03014518     0.38000
H703        H  0.98885803  0.66222383  0.05067234     0.33400
H704        H  0.98398925  0.68624373  0.03461940     0.30100
H705        H  0.89215183  0.67783947  0.98949411     0.33400
H706        H  0.92415927  0.66233737  0.99870821     0.30100
H707        H  0.86324924  0.74877200  0.05513391     0.38000
H708        H  0.91933582  0.77374234  0.05640310     0.33500
C709        C  0.87842961  0.29699008  0.01355235    -0.20300
C710        C  0.87649446  0.27077507  0.00080419     0.36000
C711        C  0.87894130  0.23264425  0.00336237    -0.26200
C712        C  0.88398704  0.22038097  0.01826482     0.02400
C713        C  0.88809964  0.24735787  0.03090544     0.27200
C714        C  0.88544809  0.28555169  0.02842392    -0.25400
N715        N  0.87206683  0.28281029  0.98529870    -0.82800
H716        H  0.87669359  0.21210392  0.99367595     0.13000
C717        C  0.88369230  0.17842356  0.02034941     0.02400
N718        N  0.89384215  0.23523159  0.04622298    -0.81300
H719        H  0.88723937  0.30550504  0.03822616     0.17800
C720        C  0.92174617  0.17898302  0.02555308    -0.26200
C721        C  0.92324185  0.13982793  0.02675135     0.35900
C722        C  0.88574682  0.09940903  0.02268568    -0.20200
C723        C  0.84776625  0.09912473  0.01746779    -0.25400
C724        C  0.84609999  0.13809771  0.01649566     0.27200
H725        H  0.95064267  0.21020585  0.02833999     0.13000
N726        N  0.96303188  0.14116824  0.03161649    -0.82700
H727        H  0.81914530  0.06830785  0.01423507     0.17800
N728        N  0.80640180  0.13700502  0.01165817    -0.81300
H729        H  0.98742262  0.17341378  0.03419782     0.33500
H730        H  0.97477122  0.13113863  0.02228396     0.38000
H731        H  0.78179956  0.10477097  0.00916837     0.33400
H732        H  0.79499003  0.14735726  0.02099416     0.30100
H733        H  0.89643684  0.25862292  0.05424776     0.33400
H734        H  0.86539488  0.20569098  0.04907211     0.30100
H735        H  0.90058714  0.31255746  0.98270396     0.38000
H736        H  0.87055015  0.25969823  0.97735694     0.33500
C737        C  0.67152497  0.30772281  0.91836752    -0.20300
C738        C  0.70725309  0.35131709  0.91965463     0.36000
C739        C  0.73354427  0.36396132  0.93299410    -0.26200
C740        C  0.72523532  0.33385171  0.94493266     0.02400
C741        C  0.69006093  0.29023410  0.94363094     0.27200
C742        C  0.66344782  0.27757141  0.93034940    -0.25400
N743        N  0.71745100  0.38221184  0.90723939    -0.82800
H744        H  0.76124414  0.39716751  0.93397536     0.13000
C745        C  0.75603804  0.34727398  0.95811812     0.02400
N746        N  0.68184917  0.25899186  0.95575234    -0.81300
H747        H  0.63615833  0.24414484  0.92937621     0.17800
C748        C  0.74413321  0.35687482  0.97244115    -0.26200
C749        C  0.77171973  0.36663321  0.98540973     0.35900
C750        C  0.81160066  0.36641300  0.98389718    -0.20200
C751        C  0.82389843  0.35807757  0.96943008    -0.25400
C752        C  0.79646498  0.34841611  0.95652465     0.27200
H753        H  0.71283172  0.35569114  0.97355369     0.13000
N754        N  0.75812723  0.37390176  0.00024378    -0.82700
H755        H  0.85439458  0.35758908  0.96834667     0.17800
N756        N  0.80879221  0.33845489  0.94189387    -0.81300
H757        H  0.72694104  0.37069763  0.99951127     0.33500
H758        H  0.77985444  0.40656628  0.00334402     0.38000
H759        H  0.83969728  0.34100648  0.94263275     0.33400
H760        H  0.78626183  0.30553916  0.93934903     0.30100
H761        H  0.65458032  0.22839636  0.95307299     0.33400
H762        H  0.70894775  0.25429937  0.95629091     0.30100
H763        H  0.72660655  0.37043549  0.89768356     0.38000
H764        H  0.74470065  0.41273005  0.91001927     0.33500
C765        C  0.85509306  0.61263295  0.18623534    -0.20300
C766        C  0.84970661  0.57314023  0.19258552     0.36000
C767        C  0.88693067  0.56869402  0.19478990    -0.26200
C768        C  0.92892927  0.60239070  0.19040100     0.02400
C769        C  0.93439443  0.64209828  0.18435340     0.27200
C770        C  0.89743647  0.64678571  0.18234031    -0.25400
N771        N  0.80651186  0.53702662  0.19606165    -0.82800
H772        H  0.88300345  0.53810346  0.19927296     0.13000
C773        C  0.96657744  0.59470190  0.19100751     0.02400
N774        N  0.97744377  0.67720425  0.18007105    -0.81300
H775        H  0.90169452  0.67721237  0.17755113     0.17800
C776        C  0.98821225  0.59656227  0.17720038    -0.26200
C777        C  0.02578950  0.59249540  0.17718386     0.35900
C778        C  0.04236960  0.58646224  0.19127997    -0.20200
C779        C  0.01886197  0.58160590  0.20498779    -0.25400
C780        C  0.98130551  0.58615218  0.20502099     0.27200
H781        H  0.97605228  0.60168860  0.16634357     0.13000
N782        N  0.04662613  0.59399758  0.16277703    -0.82700
H783        H  0.03061900  0.57577158  0.21577386     0.17800
N784        N  0.95873903  0.58316955  0.21922090    -0.81300
H785        H  0.02357877  0.56873782  0.15574916     0.33500
H786        H  0.05559506  0.62402923  0.15739747     0.38000
H787        H  0.97354574  0.57634485  0.22846150     0.33400
H788        H  0.96235739  0.61410079  0.22136173     0.30100
H789        H  0.97573677  0.70407521  0.17570171     0.33400
H790        H  0.99643560  0.68804037  0.19011564     0.30100
H791        H  0.78948466  0.52602631  0.18562146     0.38000
H792        H  0.80847258  0.51056061  0.20069627     0.33500
C793        C  0.78812701  0.67273883  0.15185619    -0.20300
C794        C  0.81268551  0.67201764  0.13899710     0.36000
C795        C  0.81799311  0.69839016  0.12612590    -0.26200
C796        C  0.79954295  0.72556331  0.12573155     0.02400
C797        C  0.77357482  0.72523958  0.13820764     0.27200
C798        C  0.76786889  0.69852253  0.15116483    -0.25400
N799        N  0.83226799  0.64456687  0.13901643    -0.82800
H800        H  0.83726868  0.69832082  0.11635559     0.13000
C801        C  0.80997757  0.75542116  0.11233478     0.02400
N802        N  0.75404340  0.75268074  0.13780089    -0.81300
H803        H  0.74891167  0.69903699  0.16095456     0.17800
C804        C  0.77679816  0.74867933  0.10187559    -0.26200
C805        C  0.78674626  0.77377667  0.08823670     0.35900
C806        C  0.83107646  0.80602956  0.08499496    -0.20200
C807        C  0.86401624  0.81290186  0.09566445    -0.25400
C808        C  0.85386175  0.78819751  0.10933617     0.27200
H809        H  0.74321630  0.72307330  0.10421089     0.13000
N810        N  0.75229480  0.76505808  0.07740702    -0.82700
H811        H  0.89787976  0.83785222  0.09336575     0.17800
N812        N  0.88798344  0.79580066  0.12016715    -0.81300
H813        H  0.72287752  0.73708423  0.08070175     0.33500
H814        H  0.74628621  0.79129202  0.07800195     0.38000
H815        H  0.91858881  0.82072924  0.11620588     0.33400
H816        H  0.88143836  0.80722308  0.13040475     0.30100
H817        H  0.73604431  0.74866050  0.14789805     0.33400
H818        H  0.77960175  0.78545474  0.13761451     0.30100
H819        H  0.80670405  0.61181390  0.13937929     0.38000
H820        H  0.84952411  0.64832514  0.12875227     0.33500
C821        C  0.66282310  0.51490629  0.23265720    -0.20300
C822        C  0.69867828  0.52194774  0.24205001     0.36000
C823        C  0.69092969  0.49517567  0.25517346    -0.26200
C824        C  0.64812136  0.46203863  0.25910755     0.02400
C825        C  0.61256578  0.45446404  0.24955040     0.27200
C826        C  0.62023985  0.48102630  0.23649914    -0.25400
N827        N  0.74240483  0.55708635  0.23858471    -0.82800
H828        H  0.71809469  0.50094445  0.26261720     0.13000
C829        C  0.64003757  0.43602518  0.27349123     0.02400
N830        N  0.56871160  0.41983891  0.25321880    -0.81300
H831        H  0.59265881  0.47528058  0.22928332     0.17800
C832        C  0.61352533  0.43886797  0.28500760    -0.26200
C833        C  0.60117633  0.41180193  0.29816650     0.35900
C834        C  0.61534436  0.38071774  0.29977595    -0.20200
C835        C  0.64342002  0.37921894  0.28850336    -0.25400
C836        C  0.65582982  0.40652662  0.27534765     0.27200
H837        H  0.60201750  0.46208919  0.28359682     0.13000
N838        N  0.57447493  0.41596512  0.30989734    -0.82700
H839        H  0.65464770  0.35573841  0.28972328     0.17800
N840        N  0.68354805  0.40376239  0.26371513    -0.81300
H841        H  0.59331316  0.42693148  0.31997676     0.33500
H842        H  0.56670893  0.44009653  0.30687025     0.38000
H843        H  0.69232186  0.38041398  0.26681501     0.33400
H844        H  0.66511488  0.39241310  0.25356434     0.30100
H845        H  0.54615229  0.41879204  0.24511501     0.33400
H846        H  0.56826957  0.38993754  0.25233722     0.30100
H847        H  0.74257588  0.58676589  0.23987081     0.38000
H848        H  0.76494003  0.55765320  0.24659538     0.33500
C849        C  0.60145270  0.58736790  0.20161189    -0.20300
C850        C  0.59294801  0.59964784  0.18698960     0.36000
C851        C  0.55501033  0.60306521  0.18501321    -0.26200
C852        C  0.52573895  0.59454430  0.19729177     0.02400
C853        C  0.53533692  0.58453485  0.21200771     0.27200
C854        C  0.57287759  0.58090056  0.21399472    -0.25400
N855        N  0.62185851  0.60738925  0.17412240    -0.82800
H856        H  0.54738565  0.61091173  0.17373909     0.13000
C857        C  0.48386798  0.59388899  0.19459811     0.02400
N858        N  0.50653982  0.57765748  0.22484524    -0.81300
H859        H  0.57958022  0.57257167  0.22533431     0.17800
C860        C  0.44428287  0.55490446  0.19765636    -0.26200
C861        C  0.40375426  0.55335768  0.19658484     0.35900
C862        C  0.40285414  0.59158057  0.19208932    -0.20200
C863        C  0.44238781  0.63006068  0.18832826    -0.25400
C864        C  0.48307423  0.63180983  0.18979708     0.27200
H865        H  0.44519146  0.52574584  0.20117661     0.13000
N866        N  0.36360666  0.51323840  0.20013086    -0.82700
H867        H  0.44167199  0.65940353  0.18493928     0.17800
N868        N  0.52355825  0.67218542  0.18695940    -0.81300
H869        H  0.37018318  0.48852842  0.20351395     0.33500
H870        H  0.34509673  0.50236128  0.18998098     0.38000
H871        H  0.51721096  0.69704148  0.18356763     0.33400
H872        H  0.54059409  0.68228334  0.19742583     0.30100
H873        H  0.51805203  0.57015720  0.23487104     0.33400
H874        H  0.50737772  0.60737728  0.22692896     0.30100
H875        H  0.61952836  0.57737236  0.17128915     0.38000
H876        H  0.61139266  0.61728976  0.16439536     0.33500
C877        C  0.34210029  0.86665322  0.57004563    -0.20300
C878        C  0.32916191  0.87552070  0.58441576     0.36000
C879        C  0.32205389  0.84746281  0.59701509    -0.26200
C880        C  0.32822288  0.81124556  0.59555292     0.02400
C881        C  0.34364622  0.80378300  0.58151277     0.27200
C882        C  0.35052844  0.83167846  0.56885028    -0.25400
N883        N  0.32310844  0.91283918  0.58612059    -0.82800
H884        H  0.31070678  0.85320666  0.60793448     0.13000
C885        C  0.31493710  0.77948297  0.60845316     0.02400
N886        N  0.35080586  0.76709487  0.58006830    -0.81300
H887        H  0.36076230  0.82503594  0.55785817     0.17800
C888        C  0.27200708  0.74338798  0.60863584    -0.26200
C889        C  0.25711407  0.71314355  0.62093874     0.35900
C890        C  0.28601466  0.71904778  0.63323152    -0.20200
C891        C  0.32916434  0.75507855  0.63291033    -0.25400
C892        C  0.34380271  0.78568176  0.62069652     0.27200
H893        H  0.24999353  0.73907536  0.59917706     0.13000
N894        N  0.21298070  0.67627814  0.62091748    -0.82700
H895        H  0.35107347  0.75995968  0.64242859     0.17800
N896        N  0.38737454  0.82351330  0.62082909    -0.81300
H897        H  0.19591342  0.67701784  0.61113446     0.33500
H898        H  0.21519275  0.64776281  0.62009005     0.38000
H899        H  0.40419641  0.82368571  0.63081031     0.33400
H900        H  0.40466950  0.82069355  0.61149638     0.30100
H901        H  0.36148788  0.76577271  0.56891304     0.33400
H902        H  0.37646150  0.77259205  0.58752711     0.30100
H903        H  0.35374493  0.94116490  0.58441500     0.38000
H904        H  0.31336776  0.91454623  0.59738952     0.33500
C905        C  0.27456958  0.93094936  0.53727449    -0.20300
C906        C  0.26196567  0.93609454  0.52218479     0.36000
C907        C  0.22345947  0.93857101  0.52019286    -0.26200
C908        C  0.19724970  0.93557469  0.53286652     0.02400
C909        C  0.21127718  0.93347743  0.54790005     0.27200
C910        C  0.24964929  0.93116064  0.54995282    -0.25400
N911        N  0.28692570  0.93692521  0.50889450    -0.82800
H912        H  0.21259933  0.94056508  0.50866142     0.13000
C913        C  0.15328514  0.93075103  0.53036487     0.02400
N914        N  0.18578771  0.93274078  0.56101430    -0.81300
H915        H  0.25958280  0.92855000  0.56156649     0.17800
C916        C  0.11587440  0.89143368  0.53497788    -0.26200
C917        C  0.07360717  0.88596315  0.53378333     0.35900
C918        C  0.06832364  0.92038014  0.52777549    -0.20200
C919        C  0.10582670  0.95921829  0.52264083    -0.25400
C920        C  0.14829390  0.96488535  0.52398854     0.27200
H921        H  0.11960942  0.86490318  0.53970784     0.13000
N922        N  0.03621888  0.84521778  0.53853804    -0.82700
H923        H  0.10219873  0.98594074  0.51805619     0.17800
N924        N  0.18633372  0.00543776  0.51927235    -0.81300
H925        H  0.03594720  0.81984021  0.53215326     0.33500
H926        H  0.04027434  0.84011055  0.55017720     0.38000
H927        H  0.17696538  0.02723411  0.51484894     0.33400
H928        H  0.20509429  0.02028658  0.52914124     0.30100
H929        H  0.20037172  0.93088361  0.57129531     0.33400
H930        H  0.18631117  0.96276004  0.56121833     0.30100
H931        H  0.28305721  0.90554950  0.50774669     0.38000
H932        H  0.27414920  0.94267345  0.49882468     0.33500
C933        C  0.44275850  0.99232474  0.48223246    -0.20300
C934        C  0.42482142  0.02060009  0.48135404     0.36000
C935        C  0.43269769  0.04694940  0.46823954    -0.26200
C936        C  0.45761780  0.04553019  0.45584456     0.02400
C937        C  0.47269251  0.01519566  0.45614169     0.27200
C938        C  0.46520491  0.98903995  0.46931295    -0.25400
N939        N  0.40013630  0.02486211  0.49371991    -0.82800
H940        H  0.42065665  0.06993687  0.46796721     0.13000
C941        C  0.47019918  0.07773880  0.44303856     0.02400
N942        N  0.49637405  0.01180939  0.44316580    -0.81300
H943        H  0.47792422  0.96662391  0.46960476     0.17800
C944        C  0.51495500  0.10770491  0.44051043    -0.26200
C945        C  0.52878885  0.13776447  0.42822817     0.35900
C946        C  0.49733340  0.13784335  0.41807450    -0.20200
C947        C  0.45230658  0.10895022  0.42103714    -0.25400
C948        C  0.43844588  0.07879449  0.43339900     0.27200
H949        H  0.53940815  0.10765607  0.44813035     0.13000
N950        N  0.57482630  0.16843428  0.42625523    -0.82700
H951        H  0.42783858  0.10879684  0.41338682     0.17800
N952        N  0.39240521  0.04867607  0.43601994    -0.81300
H953        H  0.58660143  0.18692838  0.43637773     0.33500
H954        H  0.59103666  0.15056981  0.42480267     0.38000
H955        H  0.37330337  0.05369368  0.42791235     0.33400
H956        H  0.38674199  0.01681479  0.43423236     0.30100
H957        H  0.50549427  0.98814761  0.44525302     0.33400
H958        H  0.47484382  0.00057214  0.43375751     0.30100
H959        H  0.41940270  0.03447994  0.50370998     0.38000
H960        H  0.37176047  0.99439846  0.49555041     0.33500
C961        C  0.51396367  0.93195946  0.51515938    -0.20300
C962        C  0.53504330  0.92353268  0.50279622     0.36000
C963        C  0.57133105  0.91808948  0.50582851    -0.26200
C964        C  0.58713191  0.92105161  0.52089298     0.02400
C965        C  0.56619026  0.92927899  0.53325330     0.27200
C966        C  0.52938320  0.93400489  0.53029412    -0.25400
N967        N  0.51971989  0.92068864  0.48720967    -0.82800
H968        H  0.58801378  0.91234069  0.49636493     0.13000
C969        C  0.62868014  0.92054842  0.52322063     0.02400
N970        N  0.58382141  0.93510595  0.54860585    -0.81300
H971        H  0.51370382  0.94096618  0.53978332     0.17800
C972        C  0.66798643  0.95835582  0.51897506    -0.26200
C973        C  0.70883759  0.96065095  0.52063296     0.35900
C974        C  0.71049534  0.92372116  0.52625552    -0.20200
C975        C  0.67112879  0.88636086  0.53103813    -0.25400
C976        C  0.63019771  0.88406497  0.52949244     0.27200
H977        H  0.66673581  0.98652322  0.51447729     0.13000
N978        N  0.74873713  0.00082311  0.51701686    -0.82700
H979        H  0.67197618  0.85830079  0.53575170     0.17800
N980        N  0.59128670  0.84436070  0.53433279    -0.81300
H981        H  0.74181106  0.02488948  0.51312619     0.33500
H982        H  0.76628616  0.01264564  0.52732367     0.38000
H983        H  0.58857306  0.81860410  0.52749957     0.33400
H984        H  0.56281650  0.84596125  0.53238764     0.30100
H985        H  0.56576715  0.94288730  0.55627986     0.33400
H986        H  0.57988119  0.90498788  0.55227467     0.30100
H987        H  0.48805824  0.89321612  0.48658068     0.38000
H988        H  0.53927113  0.91509108  0.47948945     0.33500
C989        C  0.19830142  0.95611955  0.69250754    -0.20300
C990        C  0.16464259  0.91196194  0.69452370     0.36000
C991        C  0.17593705  0.87934262  0.69697101    -0.26200
C992        C  0.22002599  0.88982022  0.69700735     0.02400
C993        C  0.25377889  0.93393756  0.69530001     0.27200
C994        C  0.24256921  0.96690818  0.69337965    -0.25400
N995        N  0.11918110  0.90031849  0.69375868    -0.82800
H996        H  0.15021900  0.84521547  0.69814502     0.13000
C997        C  0.22926852  0.85319643  0.69665674     0.02400
N998        N  0.29900020  0.94466957  0.69481414    -0.81300
H999        H  0.26837136  0.00079396  0.69171648     0.17800
C1000       C  0.23380983  0.83787738  0.68224305    -0.26200
C1001       C  0.23563936  0.79899067  0.68097380     0.35900
C1002       C  0.23174383  0.77445939  0.69441472    -0.20200
C1003       C  0.22942736  0.79111486  0.70893260    -0.25400
C1004       C  0.22853914  0.83057297  0.71018644     0.27200
H1005       H  0.23488145  0.85587640  0.67191685     0.13000
N1006       N  0.24161894  0.78445907  0.66612557    -0.82700
H1007       H  0.22725825  0.77275988  0.71929137     0.17800
N1008       N  0.22608623  0.84734166  0.72505488    -0.81300
H1009       H  0.24387840  0.80626000  0.65745440     0.33500
H1010       H  0.27190598  0.78551976  0.66630427     0.38000
H1011       H  0.22550188  0.82658006  0.73383790     0.33400
H1012       H  0.25508704  0.87751087  0.72654788     0.30100
H1013       H  0.31976640  0.97851225  0.69318030     0.33400
H1014       H  0.30675296  0.93705416  0.70561174     0.30100
H1015       H  0.09857785  0.86638024  0.69521808     0.38000
H1016       H  0.11304857  0.91546099  0.70304748     0.33500
C1017       C  0.12260949  0.00925789  0.65854509    -0.20300
C1018       C  0.08516195  0.96787521  0.65544463     0.36000
C1019       C  0.06113255  0.96199998  0.64180069    -0.26200
C1020       C  0.07395938  0.99624204  0.63102173     0.02400
C1021       C  0.11133417  0.03791119  0.63421098     0.27200
C1022       C  0.13439676  0.04401456  0.64807325    -0.25400
N1023       N  0.07159683  0.93197543  0.66614110    -0.82800
H1024       H  0.03240371  0.93024722  0.63942607     0.13000
C1025       C  0.04855960  0.98664955  0.61638365     0.02400
N1026       N  0.12794302  0.07426424  0.62354098    -0.81300
H1027       H  0.16328592  0.07579170  0.65027644     0.17800
C1028       C  0.02502674  0.00821430  0.61305872    -0.26200
C1029       C  0.00035599  0.99939657  0.59935436     0.35900
C1030       C  0.99972357  0.96861749  0.58860556    -0.20200
C1031       C  0.02255946  0.94642033  0.59223895    -0.25400
C1032       C  0.04684710  0.95506888  0.60595704     0.27200
H1033       H  0.02568868  0.03176017  0.62128367     0.13000
N1034       N  0.97532535  0.02088747  0.59654881    -0.82700
H1035       H  0.02204372  0.92251930  0.58422595     0.17800
N1036       N  0.07001722  0.93199507  0.60933671    -0.81300
H1037       H  0.97987225  0.04279526  0.60547374     0.33500
H1038       H  0.94198899  0.99669270  0.59673138     0.38000
H1039       H  0.06504699  0.90944549  0.60060209     0.33400
H1040       H  0.10367656  0.95511659  0.60940711     0.30100
H1041       H  0.15995358  0.08230260  0.62050833     0.33400
H1042       H  0.11018017  0.06575023  0.61325734     0.30100
H1043       H  0.06213926  0.94069273  0.67638063     0.38000
H1044       H  0.04383256  0.90367347  0.66203387     0.33500
C1045       C  0.22143871  0.41112659  0.68812101    -0.20300
C1046       C  0.18075392  0.37119323  0.68778950     0.36000
C1047       C  0.18023484  0.33092293  0.68878198    -0.26200
C1048       C  0.21956018  0.33002917  0.68998187     0.02400
C1049       C  0.26023157  0.36978628  0.68968854     0.27200
C1050       C  0.26077652  0.41002919  0.68890414    -0.25400
N1051       N  0.14015960  0.37176432  0.68699225    -0.82800
H1052       H  0.14912585  0.30020678  0.68906669     0.13000
C1053       C  0.21815656  0.28783103  0.69296912     0.02400
N1054       N  0.30075165  0.36901083  0.69027897    -0.81300
H1055       H  0.29196868  0.44069058  0.68902058     0.17800
C1056       C  0.22113632  0.26359502  0.68064169    -0.26200
C1057       C  0.22581293  0.22654985  0.68336153     0.35900
C1058       C  0.22749843  0.21382697  0.69873591    -0.20200
C1059       C  0.22252038  0.23714425  0.71097401    -0.25400
C1060       C  0.21780564  0.27393774  0.70825755     0.27200
H1061       H  0.22136053  0.27456180  0.66892042     0.13000
N1062       N  0.23055842  0.20303061  0.67063371    -0.82700
H1063       H  0.22300820  0.22697127  0.72276101     0.17800
N1064       N  0.21326801  0.29767874  0.72097027    -0.81300
H1065       H  0.22838458  0.21652673  0.66012519     0.33500
H1066       H  0.26228731  0.20750385  0.67115395     0.38000
H1067       H  0.21302963  0.28281127  0.73146982     0.33400
H1068       H  0.24112776  0.32912923  0.72113605     0.30100
H1069       H  0.32776577  0.40096059  0.68960458     0.33400
H1070       H  0.30252043  0.35654176  0.70105442     0.30100
H1071       H  0.13741514  0.38653024  0.69708317     0.38000
H1072       H  0.11322974  0.33970173  0.68686897     0.33500
C1073       C  0.43755564  0.19915805  0.79825092    -0.20300
C1074       C  0.45099598  0.22730159  0.78521584     0.36000
C1075       C  0.42302862  0.21628904  0.77246502    -0.26200
C1076       C  0.38166446  0.17783541  0.77241448     0.02400
C1077       C  0.36867623  0.14876987  0.78511902     0.27200
C1078       C  0.39698318  0.15961793  0.79790948    -0.25400
N1079       N  0.49316728  0.26670412  0.78445830    -0.82800
H1080       H  0.43326398  0.23830745  0.76260185     0.13000
C1081       C  0.35181492  0.16974094  0.75918688     0.02400
N1082       N  0.32665338  0.10884087  0.78505593    -0.81300
H1083       H  0.38676967  0.13790216  0.80785791     0.17800
C1084       C  0.34628151  0.13821742  0.74817458    -0.26200
C1085       C  0.32022755  0.13082428  0.73503067     0.35900
C1086       C  0.29924511  0.15598049  0.73260420    -0.20200
C1087       C  0.30517031  0.18769910  0.74372886    -0.25400
C1088       C  0.33042543  0.19439364  0.75705275     0.27200
H1089       H  0.36274108  0.11937815  0.74975237     0.13000
N1090       N  0.31689267  0.09834862  0.72427678    -0.82700
H1091       H  0.28927395  0.20710027  0.74227838     0.17800
N1092       N  0.33327184  0.22624705  0.76812932    -0.81300
H1093       H  0.32681600  0.11289454  0.71337368     0.33500
H1094       H  0.28425042  0.07265392  0.72385411     0.38000
H1095       H  0.30140902  0.21565020  0.77215332     0.33400
H1096       H  0.35162151  0.22775626  0.77781392     0.30100
H1097       H  0.32218834  0.09107658  0.79525656     0.33400
H1098       H  0.30229666  0.11762989  0.78492316     0.30100
H1099       H  0.51749887  0.25845224  0.78642614     0.38000
H1100       H  0.49503431  0.28824792  0.79310897     0.33500
C1101       C  0.57773854  0.88555137  0.36622851    -0.20300
C1102       C  0.53695810  0.88055764  0.36153482     0.36000
C1103       C  0.53366517  0.91829862  0.35869668    -0.26200
C1104       C  0.56972111  0.96063556  0.36113678     0.02400
C1105       C  0.61006194  0.96551325  0.36621715     0.27200
C1106       C  0.61378983  0.92802431  0.36850214    -0.25400
N1107       N  0.49867019  0.83744245  0.36039065    -0.82800
H1108       H  0.50236895  0.91473638  0.35528092     0.13000
C1109       C  0.56385557  0.99951007  0.35996871     0.02400
N1110       N  0.64679369  0.00856809  0.36937720    -0.81300
H1111       H  0.64504873  0.93204562  0.37222987     0.17800
C1112       C  0.56814905  0.02330238  0.37342644    -0.26200
C1113       C  0.56439173  0.06115793  0.37313382     0.35900
C1114       C  0.55695391  0.07632776  0.35890903    -0.20200
C1115       C  0.55106423  0.05145633  0.34545152    -0.25400
C1116       C  0.55454311  0.01316279  0.34584668     0.27200
H1117       H  0.57430303  0.01200202  0.38429289     0.13000
N1118       N  0.56763580  0.08388048  0.38731488    -0.82700
H1119       H  0.54491041  0.06251803  0.33453987     0.17800
N1120       N  0.54942088  0.98857265  0.33198527    -0.81300
H1121       H  0.57376727  0.06880606  0.39664701     0.33500
H1122       H  0.53697549  0.08103672  0.38937939     0.38000
H1123       H  0.54247903  0.00284455  0.32259684     0.33400
H1124       H  0.57964152  0.99073658  0.32962577     0.30100
H1125       H  0.67364368  0.00640818  0.37347650     0.33400
H1126       H  0.65658600  0.02583213  0.35893210     0.30100
H1127       H  0.49163995  0.82367775  0.37147562     0.38000
H1128       H  0.47129648  0.83962237  0.35695859     0.33500
C1129       C  0.77786270  0.87302768  0.46555218    -0.20300
C1130       C  0.78475308  0.85042766  0.45333016     0.36000
C1131       C  0.76019618  0.84187925  0.43965308    -0.26200
C1132       C  0.72897493  0.85522311  0.43796163     0.02400
C1133       C  0.72239835  0.87822845  0.45002309     0.27200
C1134       C  0.74710230  0.88710682  0.46365596    -0.25400
N1135       N  0.81762169  0.83762951  0.45456745    -0.82800
H1136       H  0.76532727  0.82465010  0.43023884     0.13000
C1137       C  0.70334287  0.84475711  0.42345019     0.02400
N1138       N  0.69001383  0.89158696  0.44851067    -0.81300
H1139       H  0.74184717  0.90457642  0.47295893     0.17800
C1140       C  0.66731075  0.80210675  0.42145623    -0.26200
C1141       C  0.64019164  0.79096823  0.40828973     0.35900
C1142       C  0.64959878  0.82330221  0.39688046    -0.20200
C1143       C  0.68684072  0.86539347  0.39866406    -0.25400
C1144       C  0.71367581  0.87662678  0.41175431     0.27200
H1145       H  0.65967609  0.77776387  0.43043414     0.13000
N1146       N  0.60179627  0.74801047  0.40699814    -0.82700
H1147       H  0.69457494  0.89042268  0.38993573     0.17800
N1148       N  0.75080399  0.92060767  0.41273013    -0.81300
H1149       H  0.59790627  0.72936417  0.41691714     0.33500
H1150       H  0.60722869  0.73181976  0.39788969     0.38000
H1151       H  0.73866066  0.94232654  0.41328218     0.33400
H1152       H  0.76919926  0.92536672  0.42273303     0.30100
H1153       H  0.68844443  0.90707173  0.45859918     0.33400
H1154       H  0.70046043  0.91524781  0.43975635     0.30100
H1155       H  0.80582010  0.81125562  0.46231255     0.38000
H1156       H  0.82145732  0.82548438  0.44401837     0.33500
C1157       C  0.54272445  0.62853469  0.35036403    -0.20300
C1158       C  0.55069586  0.60896955  0.33751077     0.36000
C1159       C  0.55331527  0.57090690  0.33949650    -0.26200
C1160       C  0.54849231  0.55217979  0.35414240     0.02400
C1161       C  0.54222016  0.57242212  0.36717000     0.27200
C1162       C  0.53963816  0.61082148  0.36516126    -0.25400
N1163       N  0.55666057  0.62802154  0.32242981    -0.82800
H1164       H  0.55886652  0.55566260  0.32953205     0.13000
C1165       C  0.54909573  0.51069277  0.35541245     0.02400
N1166       N  0.53761354  0.55338596  0.38224874    -0.81300
H1167       H  0.53350459  0.62592383  0.37502939     0.17800
C1168       C  0.58555244  0.51101649  0.36205405    -0.26200
C1169       C  0.58877716  0.47276011  0.36230363     0.35900
C1170       C  0.55397844  0.43315769  0.35617958    -0.20200
C1171       C  0.51755180  0.43325415  0.34949605    -0.25400
C1172       C  0.51480016  0.47164721  0.34904824     0.27200
H1173       H  0.61211041  0.54156708  0.36662753     0.13000
N1174       N  0.62769926  0.47438504  0.36833628    -0.82700
H1175       H  0.49078480  0.40312906  0.34475949     0.17800
N1176       N  0.47740762  0.47131937  0.34214333    -0.81300
H1177       H  0.64983390  0.50587277  0.37246647     0.33500
H1178       H  0.64342828  0.46854269  0.35915137     0.38000
H1179       H  0.45534293  0.44012282  0.33776972     0.33400
H1180       H  0.46078453  0.47762562  0.35088604     0.30100
H1181       H  0.53301810  0.57223200  0.39057702     0.33400
H1182       H  0.50896688  0.52248648  0.38222312     0.30100
H1183       H  0.53285400  0.60442543  0.31511772     0.38000
H1184       H  0.58763581  0.63530922  0.31835274     0.33500
C1185       C  0.34480884  0.65168210  0.25188549    -0.20300
C1186       C  0.34248900  0.67961159  0.26317509     0.36000
C1187       C  0.36899742  0.69059478  0.27648497    -0.26200
C1188       C  0.39743420  0.67400628  0.27884026     0.02400
C1189       C  0.39990687  0.64627367  0.26763729     0.27200
C1190       C  0.37362264  0.63537384  0.25431537    -0.25400
N1191       N  0.31212441  0.69542064  0.26140372    -0.82800
H1192       H  0.36668028  0.71124816  0.28527975     0.13000
C1193       C  0.42204778  0.68283711  0.29359704     0.02400
N1194       N  0.42882533  0.62890317  0.26996636    -0.81300
H1195       H  0.37572576  0.61401282  0.24576746     0.17800
C1196       C  0.40924858  0.64748853  0.30382571    -0.26200
C1197       C  0.43320318  0.65202100  0.31729393     0.35900
C1198       C  0.47074169  0.69282333  0.32084001    -0.20200
C1199       C  0.48240111  0.72894927  0.31103622    -0.25400
C1200       C  0.45886415  0.72442253  0.29734766     0.27200
H1201       H  0.38085405  0.61573654  0.30115426     0.13000
N1202       N  0.41918960  0.61495315  0.32738509    -0.82700
H1203       H  0.51126747  0.76040694  0.31362127     0.17800
N1204       N  0.47416835  0.76223742  0.28743306    -0.81300
H1205       H  0.41884986  0.58942170  0.32108107     0.33500
H1206       H  0.38695719  0.60456826  0.33092088     0.38000
H1207       H  0.50579616  0.77085982  0.28367580     0.33400
H1208       H  0.45491985  0.75517114  0.27752791     0.30100
H1209       H  0.42653780  0.60866369  0.26075180     0.33400
H1210       H  0.46110578  0.65545908  0.26997192     0.30100
H1211       H  0.28037563  0.66803680  0.26190778     0.38000
H1212       H  0.31471973  0.71570586  0.27064551     0.33500
C1213       C  0.74350841  0.03066739  0.15134003    -0.20300
C1214       C  0.74014172  0.98935786  0.14859936     0.36000
C1215       C  0.75799186  0.98275433  0.13503897    -0.26200
C1216       C  0.77975652  0.01657062  0.12422624     0.02400
C1217       C  0.78491966  0.05841949  0.12716051     0.27200
C1218       C  0.76679071  0.06513597  0.14074887    -0.25400
N1219       N  0.71853917  0.95415801  0.15962384    -0.82800
H1220       H  0.75471350  0.95089034  0.13280828     0.13000
C1221       C  0.79647082  0.00687713  0.10987838     0.02400
N1222       N  0.80737673  0.09341394  0.11613919    -0.81300
H1223       H  0.76939192  0.09678094  0.14278432     0.17800
C1224       C  0.76847600  0.98950992  0.09706825    -0.26200
C1225       C  0.78168859  0.97601862  0.08377352     0.35900
C1226       C  0.82400002  0.98054510  0.08325931    -0.20200
C1227       C  0.85194230  0.99813706  0.09606657    -0.25400
C1228       C  0.83838006  0.01076926  0.10945703     0.27200
H1229       H  0.73594440  0.98577485  0.09757864     0.13000
N1230       N  0.75236819  0.95773558  0.07082554    -0.82700
H1231       H  0.88393883  0.00074315  0.09576739     0.17800
N1232       N  0.86629649  0.02604357  0.12283533    -0.81300
H1233       H  0.72241628  0.95625337  0.07310149     0.33500
H1234       H  0.76664222  0.97922394  0.06147974     0.38000
H1235       H  0.89541436  0.02557211  0.12084314     0.33400
H1236       H  0.87533206  0.05893327  0.12462036     0.30100
H1237       H  0.80794178  0.12193613  0.11993167     0.33400
H1238       H  0.84014877  0.10090646  0.11562455     0.30100
H1239       H  0.73694651  0.96410449  0.16981360     0.38000
H1240       H  0.71863718  0.92595349  0.15584672     0.33500
C1241       C  0.61046762  0.96656354  0.18329580    -0.20300
C1242       C  0.57939182  0.96891459  0.19314340     0.36000
C1243       C  0.53801333  0.93093673  0.19559131    -0.26200
C1244       C  0.52704367  0.89106352  0.18837414     0.02400
C1245       C  0.55791672  0.88837916  0.17880803     0.27200
C1246       C  0.59906112  0.92598414  0.17633710    -0.25400
N1247       N  0.58940581  0.00956848  0.20048512    -0.82800
H1248       H  0.51387552  0.93253186  0.20293849     0.13000
C1249       C  0.48277265  0.85212449  0.19050530     0.02400
N1250       N  0.54721320  0.84730914  0.17161614    -0.81300
H1251       H  0.62241445  0.92323099  0.16893712     0.17800
C1252       C  0.45228090  0.83975281  0.17844486    -0.26200
C1253       C  0.41191553  0.80048577  0.17916495     0.35900
C1254       C  0.40163740  0.77273914  0.19220093    -0.20200
C1255       C  0.43127862  0.78611455  0.20462454    -0.25400
C1256       C  0.47213012  0.82556798  0.20382725     0.27200
H1257       H  0.46033697  0.86041350  0.16826496     0.13000
N1258       N  0.38161554  0.78994062  0.16662648    -0.82700
H1259       H  0.42314721  0.76507224  0.21470020     0.17800
N1260       N  0.50316249  0.83844157  0.21629865    -0.81300
H1261       H  0.37604142  0.76069039  0.16149965     0.33500
H1262       H  0.35181654  0.78517232  0.17105371     0.38000
H1263       H  0.49026899  0.81541404  0.22527476     0.33400
H1264       H  0.53091563  0.83798907  0.21217716     0.30100
H1265       H  0.57340271  0.85089722  0.16479891     0.33400
H1266       H  0.54302615  0.82505472  0.18039717     0.30100
H1267       H  0.59150605  0.03133927  0.19183276     0.38000
H1268       H  0.56370937  0.00499901  0.20778364     0.33500
C1269       C  0.69580330  0.16157840  0.22715529    -0.20300
C1270       C  0.66912761  0.12519690  0.23682091     0.36000
C1271       C  0.65025641  0.13155313  0.25020036    -0.26200
C1272       C  0.65736837  0.17327904  0.25411639     0.02400
C1273       C  0.68254629  0.20931336  0.24425180     0.27200
C1274       C  0.70155381  0.20313474  0.23089107    -0.25400
N1275       N  0.66349277  0.08254168  0.23362031    -0.82800
H1276       H  0.63114851  0.10412738  0.25793057     0.13000
C1277       C  0.64169372  0.17960621  0.26926426     0.02400
N1278       N  0.68954302  0.25218440  0.24808133    -0.81300
H1279       H  0.72166375  0.23111186  0.22349845     0.17800
C1280       C  0.67289441  0.20355186  0.28065895    -0.26200
C1281       C  0.66001614  0.21112190  0.29510502     0.35900
C1282       C  0.61507901  0.19535782  0.29821497    -0.20200
C1283       C  0.58360985  0.16954231  0.28702479    -0.25400
C1284       C  0.59652795  0.16154012  0.27254474     0.27200
H1285       H  0.70755637  0.21630111  0.27833335     0.13000
N1286       N  0.69269865  0.23413572  0.30668726    -0.82700
H1287       H  0.54899047  0.15695388  0.28934859     0.17800
N1288       N  0.56414895  0.13591535  0.26107801    -0.81300
H1289       H  0.70926220  0.21681048  0.30866543     0.33500
H1290       H  0.71543442  0.26518267  0.30232879     0.38000
H1291       H  0.53240596  0.12472725  0.26534968     0.33400
H1292       H  0.56848070  0.15677143  0.25178657     0.30100
H1293       H  0.70945202  0.27537090  0.23978827     0.33400
H1294       H  0.65897947  0.25049100  0.24768712     0.30100
H1295       H  0.64318392  0.07017306  0.22393559     0.38000
H1296       H  0.64655203  0.06061625  0.24263067     0.33500
C1297       C  0.83191898  0.22758556  0.19648877    -0.20300
C1298       C  0.84250929  0.27143173  0.19945149     0.36000
C1299       C  0.88595208  0.30574256  0.19743317    -0.26200
C1300       C  0.91873001  0.29733627  0.19228686     0.02400
C1301       C  0.90831388  0.25403817  0.18885210     0.27200
C1302       C  0.86486563  0.21944086  0.19099988    -0.25400
N1303       N  0.80917001  0.28109384  0.20437105    -0.82800
H1304       H  0.89449857  0.33932119  0.19997871     0.13000
C1305       C  0.96422446  0.33444077  0.19149431     0.02400
N1306       N  0.94205781  0.24534602  0.18362435    -0.81300
H1307       H  0.85695667  0.18593178  0.18872804     0.17800
C1308       C  0.98974190  0.34640030  0.20495118    -0.26200
C1309       C  0.03117006  0.38477573  0.20538600     0.35900
C1310       C  0.04716093  0.41122289  0.19204476    -0.20200
C1311       C  0.02219264  0.39847765  0.17842442    -0.25400
C1312       C  0.98039283  0.36048628  0.17808174     0.27200
H1313       H  0.97668421  0.32630857  0.21524209     0.13000
N1314       N  0.05695265  0.39717687  0.21929438    -0.82700
H1315       H  0.03460479  0.41918444  0.16824099     0.17800
N1316       N  0.95351800  0.34934154  0.16446062    -0.81300
H1317       H  0.04026991  0.37431094  0.22809095     0.33500
H1318       H  0.08562928  0.39608483  0.21702828     0.38000
H1319       H  0.96981010  0.37272796  0.15577037     0.33400
H1320       H  0.94911743  0.31952743  0.16027061     0.30100
H1321       H  0.92903728  0.21160336  0.18186891     0.33400
H1322       H  0.95296110  0.26038911  0.17284499     0.30100
H1323       H  0.78656785  0.27251491  0.19534344     0.38000
H1324       H  0.82262584  0.31488266  0.20616314     0.33500
C1325       C  0.73542708  0.25897757  0.35767494    -0.20300
C1326       C  0.75681044  0.25951912  0.37158402     0.36000
C1327       C  0.79859989  0.26348713  0.37093071    -0.26200
C1328       C  0.81905002  0.26660814  0.35673864     0.02400
C1329       C  0.79738905  0.26478271  0.34286477     0.27200
C1330       C  0.75592277  0.26138413  0.34348274    -0.25400
N1331       N  0.73666980  0.25716298  0.38628931    -0.82800
H1332       H  0.81567600  0.26483432  0.38151637     0.13000
C1333       C  0.86386522  0.27314820  0.35656738     0.02400
N1334       N  0.81760564  0.26635785  0.32825032    -0.81300
H1335       H  0.73958557  0.26078863  0.33283609     0.17800
C1336       C  0.86945751  0.23666244  0.35478287    -0.26200
C1337       C  0.91179333  0.24190921  0.35408125     0.35900
C1338       C  0.94890501  0.28461101  0.35491019    -0.20200
C1339       C  0.94314104  0.32105199  0.35686037    -0.25400
C1340       C  0.90082286  0.31566310  0.35787011     0.27200
H1341       H  0.84068481  0.20413669  0.35379123     0.13000
N1342       N  0.91719671  0.20439820  0.35174430    -0.82700
H1343       H  0.97177651  0.35379913  0.35740702     0.17800
N1344       N  0.89509700  0.35303398  0.36012774    -0.81300
H1345       H  0.88655788  0.17575650  0.35057471     0.33500
H1346       H  0.93134901  0.20024457  0.36175170     0.38000
H1347       H  0.92563778  0.38190681  0.36105758     0.33400
H1348       H  0.87996517  0.35647364  0.35025307     0.30100
H1349       H  0.79682193  0.26361401  0.31914735     0.33400
H1350       H  0.84583293  0.29737896  0.32721991     0.30100
H1351       H  0.73479569  0.28578126  0.38752437     0.38000
H1352       H  0.75643165  0.25715865  0.39531452     0.33500
C1353       C  0.08190499  0.35381225  0.32307054    -0.20300
C1354       C  0.07345878  0.38700247  0.31768010     0.36000
C1355       C  0.09259009  0.40913040  0.30381711    -0.26200
C1356       C  0.11996353  0.39916707  0.29507528     0.02400
C1357       C  0.12977579  0.36724211  0.30057253     0.27200
C1358       C  0.11104984  0.34522489  0.31462475    -0.25400
N1359       N  0.04530181  0.39814368  0.32622908    -0.82800
H1360       H  0.08568248  0.43415039  0.29964652     0.13000
C1361       C  0.13637375  0.42192525  0.27997343     0.02400
N1362       N  0.15748868  0.35635644  0.29165015    -0.81300
H1363       H  0.11768837  0.31989334  0.31861806     0.17800
C1364       C  0.18143696  0.45168869  0.27782445    -0.26200
C1365       C  0.19689681  0.47824960  0.26445416     0.35900
C1366       C  0.16654381  0.47427248  0.25290128    -0.20200
C1367       C  0.12165701  0.44376732  0.25502509    -0.25400
C1368       C  0.10634447  0.41741284  0.26832738     0.27200
H1369       H  0.20431680  0.45549312  0.28689743     0.13000
N1370       N  0.24291096  0.51025204  0.26287783    -0.82700
H1371       H  0.09827647  0.44042721  0.24623698     0.17800
N1372       N  0.06018479  0.38635628  0.27019501    -0.81300
H1373       H  0.26065515  0.50882436  0.27233485     0.33500
H1374       H  0.24605651  0.54147677  0.26307823     0.38000
H1375       H  0.04236651  0.38733628  0.26068325     0.33400
H1376       H  0.05635527  0.35485908  0.27040952     0.30100
H1377       H  0.16147373  0.33223903  0.29728588     0.33400
H1378       H  0.14120270  0.34243286  0.28128047     0.30100
H1379       H  0.06080213  0.41174626  0.33673466     0.38000
H1380       H  0.04181564  0.42245302  0.32050565     0.33500
C1381       C  0.04486610  0.18856200  0.40276872    -0.20300
C1382       C  0.06985981  0.19311965  0.41615457     0.36000
C1383       C  0.04994293  0.16446931  0.42878062    -0.26200
C1384       C  0.00550233  0.13125916  0.42840891     0.02400
C1385       C  0.98009981  0.12741116  0.41513923     0.27200
C1386       C  0.00000855  0.15643101  0.40260028    -0.25400
N1387       N  0.11549825  0.22680064  0.41684277    -0.82800
H1388       H  0.06931522  0.16770822  0.43895213     0.13000
C1389       C  0.98730025  0.10058678  0.44186728     0.02400
N1390       N  0.93452975  0.09396229  0.41376432    -0.81300
H1391       H  0.98068767  0.15244932  0.39234417     0.17800
C1392       C  0.96023927  0.10557627  0.45262278    -0.26200
C1393       C  0.94402083  0.07830702  0.46580723     0.35900
C1394       C  0.95522814  0.04526014  0.46832637    -0.20200
C1395       C  0.98233364  0.04041101  0.45747710    -0.25400
C1396       C  0.99798378  0.06731144  0.44422259     0.27200
H1397       H  0.95217555  0.13123089  0.45078478     0.13000
N1398       N  0.91697991  0.08472760  0.47676168    -0.82700
H1399       H  0.99076452  0.01497028  0.45920061     0.17800
N1400       N  0.02455229  0.06087313  0.43307329    -0.81300
H1401       H  0.91139626  0.10988951  0.47311173     0.33500
H1402       H  0.93455632  0.09531764  0.48711227     0.38000
H1403       H  0.02949456  0.03510772  0.43648144     0.33400
H1404       H  0.00679937  0.05099528  0.42274295     0.30100
H1405       H  0.93202630  0.07341521  0.40462401     0.33400
H1406       H  0.92315856  0.07403386  0.42357299     0.30100
H1407       H  0.11698921  0.25725454  0.41625528     0.38000
H1408       H  0.12918469  0.22587672  0.42746024     0.33500
C1409       C  0.37242450  0.24982990  0.35752976    -0.20300
C1410       C  0.35257060  0.25428869  0.34393297     0.36000
C1411       C  0.31203746  0.25322919  0.34496281    -0.26200
C1412       C  0.29079834  0.24726572  0.35920968     0.02400
C1413       C  0.31051256  0.24291339  0.37275567     0.27200
C1414       C  0.35082887  0.24388457  0.37176249    -0.25400
N1415       N  0.37291666  0.25876201  0.32911594    -0.82800
H1416       H  0.29640489  0.25608385  0.33458830     0.13000
C1417       C  0.24709103  0.24396373  0.35992844     0.02400
N1418       N  0.28950051  0.23774969  0.38748996    -0.81300
H1419       H  0.36573371  0.24053792  0.38224085     0.17800
C1420       C  0.21104410  0.20451942  0.36512917    -0.26200
C1421       C  0.17009564  0.20113726  0.36777366     0.35900
C1422       C  0.16529782  0.23830482  0.36541201    -0.20200
C1423       C  0.20046911  0.27683837  0.35908646    -0.25400
C1424       C  0.24157579  0.28011326  0.35639320     0.27200
H1425       H  0.21522758  0.17649696  0.36742201     0.13000
N1426       N  0.13336721  0.16012360  0.37291674    -0.82700
H1427       H  0.19656571  0.30510546  0.35699070     0.17800
N1428       N  0.27805403  0.32033047  0.35061467    -0.81300
H1429       H  0.14248836  0.13616995  0.37416473     0.33500
H1430       H  0.10948456  0.14900052  0.36423717     0.38000
H1431       H  0.26848124  0.34365349  0.34853868     0.33400
H1432       H  0.30198304  0.33327149  0.35927393     0.30100
H1433       H  0.30811961  0.23472919  0.39631801     0.33400
H1434       H  0.28876731  0.26663150  0.38969247     0.30100
H1435       H  0.37292152  0.22950044  0.32691808     0.38000
H1436       H  0.35421871  0.26199885  0.32036861     0.33500
C1437       C  0.49859547  0.90210494  0.03360894    -0.20300
C1438       C  0.51248952  0.89742492  0.01872932     0.36000
C1439       C  0.55363110  0.90072617  0.01691175    -0.26200
C1440       C  0.58154215  0.90905254  0.02956824     0.02400
C1441       C  0.56804253  0.91392227  0.04444880     0.27200
C1442       C  0.52671785  0.91007069  0.04626410    -0.25400
N1443       N  0.48522936  0.88791357  0.00535592    -0.82800
H1444       H  0.56383909  0.89647508  0.00553550     0.13000
C1445       C  0.62382142  0.91073612  0.02709845     0.02400
N1446       N  0.59523473  0.92296873  0.05792814    -0.81300
H1447       H  0.51672074  0.91378797  0.05774336     0.17800
C1448       C  0.66174038  0.95139715  0.02426054    -0.26200
C1449       C  0.70313484  0.95458583  0.02313826     0.35900
C1450       C  0.70611477  0.91616320  0.02471625    -0.20200
C1451       C  0.66791797  0.87545406  0.02728009    -0.25400
C1452       C  0.62669371  0.87235908  0.02849801     0.27200
H1453       H  0.65907322  0.98074558  0.02335517     0.13000
N1454       N  0.74214844  0.99669317  0.02094415    -0.82700
H1455       H  0.67036367  0.84602654  0.02844505     0.17800
N1456       N  0.58773954  0.83053014  0.03123415    -0.81300
H1457       H  0.73413422  0.02153788  0.02006493     0.33500
H1458       H  0.76147903  0.00349118  0.03086076     0.38000
H1459       H  0.59538780  0.80535732  0.03150945     0.33400
H1460       H  0.57594436  0.83157534  0.04221987     0.30100
H1461       H  0.57929891  0.89588287  0.06534037     0.33400
H1462       H  0.62579486  0.92640623  0.05530264     0.30100
H1463       H  0.45500437  0.85946300  0.00748371     0.38000
H1464       H  0.48005560  0.91428267  0.00331539     0.33500
C1465       C  0.28131633  0.71191821  0.13342230    -0.20300
C1466       C  0.27466767  0.74846580  0.13177524     0.36000
C1467       C  0.28846595  0.77342744  0.11816305    -0.26200
C1468       C  0.31030605  0.76421082  0.10654733     0.02400
C1469       C  0.31692700  0.72801473  0.10813244     0.27200
C1470       C  0.30220069  0.70216420  0.12153253    -0.25400
N1471       N  0.25619768  0.76272254  0.14375451    -0.82800
H1472       H  0.28431956  0.80186857  0.11701533     0.13000
C1473       C  0.33073730  0.79568870  0.09367549     0.02400
N1474       N  0.33910099  0.71809916  0.09620251    -0.81300
H1475       H  0.30709328  0.67418600  0.12272717     0.17800
C1476       C  0.37665775  0.81990419  0.09291900    -0.26200
C1477       C  0.39807904  0.84912581  0.08076585     0.35900
C1478       C  0.37325081  0.85240746  0.06852781    -0.20200
C1479       C  0.32709677  0.83062460  0.06989519    -0.25400
C1480       C  0.30557825  0.80276962  0.08257564     0.27200
H1481       H  0.39606251  0.81631000  0.10192806     0.13000
N1482       N  0.44511189  0.87584605  0.08104386    -0.82700
H1483       H  0.30772560  0.83408826  0.06086009     0.17800
N1484       N  0.25853551  0.78137207  0.08415693    -0.81300
H1485       H  0.45407252  0.89469698  0.09113477     0.33500
H1486       H  0.45835203  0.85505623  0.08154724     0.38000
H1487       H  0.24497159  0.79037405  0.07509885     0.33400
H1488       H  0.24592938  0.74745025  0.08325018     0.30100
H1489       H  0.34185938  0.69077060  0.09926367     0.33400
H1490       H  0.31937894  0.70925115  0.08632676     0.30100
H1491       H  0.25172908  0.74556872  0.15403267     0.38000
H1492       H  0.27939233  0.79537383  0.14639601     0.33500
C1493       C  0.48159758  0.11993325  0.91542801    -0.20300
C1494       C  0.48520851  0.08162228  0.91511052     0.36000
C1495       C  0.46938875  0.05215324  0.92768651    -0.26200
C1496       C  0.45049716  0.06056517  0.94054085     0.02400
C1497       C  0.44731246  0.09899041  0.94093566     0.27200
C1498       C  0.46242438  0.12806677  0.92828200    -0.25400
N1499       N  0.50437953  0.07257307  0.90194813    -0.82800
H1500       H  0.47156260  0.02246277  0.92746126     0.13000
C1501       C  0.43276571  0.02848468  0.95343936     0.02400
N1502       N  0.42919545  0.10848321  0.95429306    -0.81300
H1503       H  0.45998783  0.15761697  0.92855687     0.17800
C1504       C  0.45849497  0.03568411  0.96665822    -0.26200
C1505       C  0.44074707  0.00935230  0.97994139     0.35900
C1506       C  0.39611479  0.97543124  0.97998306    -0.20200
C1507       C  0.37102713  0.96723837  0.96645574    -0.25400
C1508       C  0.38897809  0.99335647  0.95316262     0.27200
H1509       H  0.49210515  0.06291305  0.96676323     0.13000
N1510       N  0.46701082  0.01897780  0.99366547    -0.82700
H1511       H  0.33686330  0.94116687  0.96642607     0.17800
N1512       N  0.36270130  0.98508709  0.93950050    -0.81300
H1513       H  0.49786503  0.04707601  0.99205134     0.33500
H1514       H  0.47294593  0.99296832  0.99542106     0.38000
H1515       H  0.33116076  0.95803980  0.94117891     0.33400
H1516       H  0.35871724  0.01229851  0.93765475     0.30100
H1517       H  0.42980431  0.13834733  0.95287367     0.33400
H1518       H  0.39607609  0.08403971  0.95516516     0.30100
H1519       H  0.48403224  0.06757624  0.89244673     0.38000
H1520       H  0.50484889  0.04331237  0.90356992     0.33500
C1521       C  0.06785611  0.92365627  0.02339839    -0.20300
C1522       C  0.10728793  0.96085461  0.01840401     0.36000
C1523       C  0.14617276  0.95898507  0.01763722    -0.26200
C1524       C  0.14648340  0.92048858  0.02162572     0.02400
C1525       C  0.10736772  0.88319624  0.02665181     0.27200
C1526       C  0.06850799  0.88536114  0.02773261    -0.25400
N1527       N  0.10813165  0.00073431  0.01420669    -0.82800
H1528       H  0.17623440  0.98756526  0.01365674     0.13000
C1529       C  0.18743378  0.91904381  0.01927625     0.02400
N1530       N  0.10710638  0.84311119  0.03026517    -0.81300
H1531       H  0.03827708  0.85654544  0.03144478     0.17800
C1532       C  0.21419395  0.92324105  0.03191315    -0.26200
C1533       C  0.25521445  0.92585917  0.02973971     0.35900
C1534       C  0.26906963  0.92336913  0.01458807    -0.20200
C1535       C  0.24145336  0.91818015  0.00206000    -0.25400
C1536       C  0.20087202  0.91600153  0.00425581     0.27200
H1537       H  0.20363345  0.92589842  0.04342359     0.13000
N1538       N  0.28327524  0.93259294  0.04276598    -0.82700
H1539       H  0.25164139  0.91597786  0.99044093     0.17800
N1540       N  0.17336188  0.91132967  0.99127058    -0.81300
H1541       H  0.26792343  0.93321874  0.05303498     0.33500
H1542       H  0.31122892  0.96377224  0.04156500     0.38000
H1543       H  0.18812146  0.90991993  0.98096459     0.33400
H1544       H  0.14424625  0.88106184  0.99240742     0.30100
H1545       H  0.07562785  0.81865428  0.03369675     0.33400
H1546       H  0.11427166  0.83189538  0.02010185     0.30100
H1547       H  0.11888101  0.00816186  0.00275663     0.38000
H1548       H  0.13122835  0.02608151  0.02119186     0.33500
C1549       C  0.28531916  0.53309036  0.63173759    -0.20300
C1550       C  0.30624108  0.56114891  0.61900481     0.36000
C1551       C  0.32098172  0.54595455  0.60661806    -0.26200
C1552       C  0.31558385  0.50356742  0.60681634     0.02400
C1553       C  0.29462321  0.47554616  0.61949867     0.27200
C1554       C  0.27933463  0.49045026  0.63178518    -0.25400
N1555       N  0.31220573  0.60475788  0.61868166    -0.82800
H1556       H  0.33725182  0.56737018  0.59684276     0.13000
C1557       C  0.33363777  0.48968254  0.59390132     0.02400
N1558       N  0.28946259  0.43230230  0.61989991    -0.81300
H1559       H  0.26359306  0.46908602  0.64162270     0.17800
C1560       C  0.37321460  0.48980227  0.59605400    -0.26200
C1561       C  0.39341282  0.48052229  0.58374625     0.35900
C1562       C  0.37358427  0.47093262  0.56900027    -0.20200
C1563       C  0.33272941  0.46847189  0.56705861    -0.25400
C1564       C  0.31259765  0.47794343  0.57940400     0.27200
H1565       H  0.38889703  0.49824877  0.60728659     0.13000
N1566       N  0.43429720  0.48127512  0.58608232    -0.82700
H1567       H  0.31753987  0.46111251  0.55574439     0.17800
N1568       N  0.27144980  0.47673274  0.57723549    -0.81300
H1569       H  0.44465186  0.48908179  0.59754384     0.33500
H1570       H  0.42840365  0.44936105  0.58421150     0.38000
H1571       H  0.26033959  0.46772693  0.56590048     0.33400
H1572       H  0.24815495  0.45194006  0.58438886     0.30100
H1573       H  0.27381551  0.41598728  0.63011017     0.33400
H1574       H  0.26853676  0.41422477  0.61083497     0.30100
H1575       H  0.28098721  0.60160844  0.61842190     0.38000
H1576       H  0.32827071  0.62118092  0.60853931     0.33500
C1577       C  0.50697522  0.54146833  0.53730990    -0.20300
C1578       C  0.52728250  0.55186414  0.52255280     0.36000
C1579       C  0.56891485  0.58981830  0.52076994    -0.26200
C1580       C  0.58996853  0.61779884  0.53328221     0.02400
C1581       C  0.57019450  0.60735866  0.54796490     0.27200
C1582       C  0.52908837  0.56930939  0.54984743    -0.25400
N1583       N  0.50526057  0.52493562  0.50935925    -0.82800
H1584       H  0.58434546  0.59854910  0.50948224     0.13000
C1585       C  0.63118914  0.65983423  0.53077866     0.02400
N1586       N  0.59181903  0.63592844  0.56085582    -0.81300
H1587       H  0.51419093  0.56158699  0.56122226     0.17800
C1588       C  0.63012496  0.69895098  0.53218089    -0.26200
C1589       C  0.66854727  0.73974637  0.53104681     0.35900
C1590       C  0.70912139  0.74180916  0.52797402    -0.20200
C1591       C  0.71000448  0.70250319  0.52620797    -0.25400
C1592       C  0.67136109  0.66135792  0.52783989     0.27200
H1593       H  0.59916547  0.69768468  0.53448692     0.13000
N1594       N  0.66511809  0.77841228  0.53285217    -0.82700
H1595       H  0.74111805  0.70395595  0.52408117     0.17800
N1596       N  0.67279023  0.62125574  0.52687120    -0.81300
H1597       H  0.68238435  0.79519482  0.54273551     0.33500
H1598       H  0.67910824  0.79857170  0.52317544     0.38000
H1599       H  0.70497455  0.62815440  0.52480489     0.33400
H1600       H  0.66373514  0.60584895  0.53767140     0.30100
H1601       H  0.57265096  0.62389875  0.57085025     0.33400
H1602       H  0.62092029  0.63551404  0.56294232     0.30100
H1603       H  0.47754529  0.52781349  0.50716103     0.38000
H1604       H  0.52517426  0.53681639  0.49952532     0.33500
C1605       C  0.07134713  0.09558904  0.52657379    -0.20300
C1606       C  0.09248426  0.11361673  0.51230154     0.36000
C1607       C  0.13455644  0.15095410  0.51227042    -0.26200
C1608       C  0.15547269  0.17124667  0.52610182     0.02400
C1609       C  0.13361518  0.15489676  0.54028917     0.27200
C1610       C  0.09165370  0.11705547  0.54039433    -0.25400
N1611       N  0.07101836  0.09437492  0.49790136    -0.82800
H1612       H  0.15120631  0.16453556  0.50138704     0.13000
C1613       C  0.20051068  0.20945336  0.52533392     0.02400
N1614       N  0.15441268  0.17635232  0.55449626    -0.81300
H1615       H  0.07530942  0.10360960  0.55132450     0.17800
C1616       C  0.20863633  0.25060492  0.53054771    -0.26200
C1617       C  0.25001890  0.28846608  0.52840683     0.35900
C1618       C  0.28372263  0.28469036  0.52088232    -0.20200
C1619       C  0.27575466  0.24300855  0.51625249    -0.25400
C1620       C  0.23462762  0.20532423  0.51851426     0.27200
H1621       H  0.18211043  0.25337048  0.53578793     0.13000
N1622       N  0.25725678  0.33064255  0.53335256    -0.82700
H1623       H  0.30174483  0.23974108  0.51081408     0.17800
N1624       N  0.22710718  0.16284338  0.51380127    -0.81300
H1625       H  0.22939929  0.32732159  0.53898091     0.33500
H1626       H  0.26169180  0.34952953  0.52345439     0.38000
H1627       H  0.25558866  0.16550662  0.50892595     0.33400
H1628       H  0.22028477  0.14350728  0.52373800     0.30100
H1629       H  0.13377146  0.16030611  0.56389592     0.33400
H1630       H  0.18238316  0.17341683  0.55590404     0.30100
H1631       H  0.09131568  0.11146396  0.48854021     0.38000
H1632       H  0.04332746  0.09804136  0.49707763     0.33500
C1633       C  0.41275546  0.35259920  0.48717457    -0.20300
C1634       C  0.40630013  0.31108057  0.48246595     0.36000
C1635       C  0.42341956  0.30722835  0.46826623    -0.26200
C1636       C  0.44763796  0.34388964  0.45875990     0.02400
C1637       C  0.45581014  0.38562206  0.46361790     0.27200
C1638       C  0.43825255  0.38962046  0.47780123    -0.25400
N1639       N  0.38258189  0.27291404  0.49216091    -0.82800
H1640       H  0.41797258  0.27540302  0.46457067     0.13000
C1641       C  0.46496886  0.33765117  0.44392669     0.02400
N1642       N  0.48104886  0.42349961  0.45396895    -0.81300
H1643       H  0.44333465  0.42143395  0.48130472     0.17800
C1644       C  0.43926411  0.32743055  0.43049958    -0.26200
C1645       C  0.45300039  0.31704164  0.41661595     0.35900
C1646       C  0.49289233  0.31645144  0.41630949    -0.20200
C1647       C  0.51917569  0.32819457  0.42959078    -0.25400
C1648       C  0.50548426  0.33852060  0.44343260     0.27200
H1649       H  0.40815735  0.32687089  0.43094952     0.13000
N1650       N  0.42681666  0.30721551  0.40286038    -0.82700
H1651       H  0.54978870  0.32776808  0.42929857     0.17800
N1652       N  0.53178811  0.34838846  0.45715211    -0.81300
H1653       H  0.39855653  0.30917654  0.40501459     0.33500
H1654       H  0.44530664  0.33163034  0.39470539     0.38000
H1655       H  0.56020748  0.34678648  0.45492610     0.33400
H1656       H  0.54233253  0.38097811  0.46018144     0.30100
H1657       H  0.48371100  0.45164698  0.45910565     0.33400
H1658       H  0.51300721  0.42868534  0.45323255     0.30100
H1659       H  0.40081381  0.27843181  0.50228916     0.38000
H1660       H  0.38039985  0.24504310  0.48696023     0.33500
C1661       C  0.61568379  0.37292895  0.80047466    -0.20300
C1662       C  0.60836843  0.40848384  0.79793725     0.36000
C1663       C  0.62337821  0.43283565  0.78412610    -0.26200
C1664       C  0.64548728  0.42228883  0.77291350     0.02400
C1665       C  0.65300811  0.38696397  0.77557507     0.27200
C1666       C  0.63814970  0.36280661  0.78932043    -0.25400
N1667       N  0.58695990  0.42046505  0.80952507    -0.82800
H1668       H  0.61872227  0.46071711  0.78220788     0.13000
C1669       C  0.66469294  0.45097059  0.75913286     0.02400
N1670       N  0.67609313  0.37603679  0.76432418    -0.81300
H1671       H  0.64365485  0.33544805  0.79124979     0.17800
C1672       C  0.71056461  0.47356739  0.75767171    -0.26200
C1673       C  0.73173556  0.50029376  0.74485187     0.35900
C1674       C  0.70637062  0.50476136  0.73298760    -0.20200
C1675       C  0.66036053  0.48326666  0.73470266    -0.25400
C1676       C  0.63909087  0.45601086  0.74751391     0.27200
H1677       H  0.73010700  0.47020794  0.76668314     0.13000
N1678       N  0.77903397  0.52307346  0.74397461    -0.82700
H1679       H  0.64051334  0.48629858  0.72574405     0.17800
N1680       N  0.59175858  0.43337176  0.74804850    -0.81300
H1681       H  0.79243128  0.51539246  0.75344092     0.33500
H1682       H  0.79029466  0.55680280  0.74462883     0.38000
H1683       H  0.58004209  0.41291195  0.73837218     0.33400
H1684       H  0.57930990  0.41261403  0.75761674     0.30100
H1685       H  0.67972021  0.34981027  0.76818515     0.33400
H1686       H  0.65659365  0.36516230  0.75439836     0.30100
H1687       H  0.60720733  0.43085798  0.81928420     0.38000
H1688       H  0.58421123  0.44734418  0.80584114     0.33500
C1689       C  0.83129342  0.56173745  0.69746120    -0.20300
C1690       C  0.86356509  0.59701379  0.68851614     0.36000
C1691       C  0.90522644  0.60110159  0.68659588    -0.26200
C1692       C  0.91514801  0.57092023  0.69343892     0.02400
C1693       C  0.88242663  0.53469015  0.70170937     0.27200
C1694       C  0.84096326  0.53048772  0.70361431    -0.25400
N1695       N  0.85468713  0.62924697  0.68183490    -0.82800
H1696       H  0.93065923  0.62887649  0.68024597     0.13000
C1697       C  0.96059335  0.57883393  0.69272712     0.02400
N1698       N  0.89174061  0.50267320  0.70834100    -0.81300
H1699       H  0.81617692  0.50274052  0.71015435     0.17800
C1700       C  0.98309699  0.58377816  0.70659983    -0.26200
C1701       C  0.02536908  0.58936479  0.70662065     0.35900
C1702       C  0.04604398  0.59068097  0.69251626    -0.20200
C1703       C  0.02419350  0.58741929  0.67856687    -0.25400
C1704       C  0.98128461  0.58091913  0.67854530     0.27200
H1705       H  0.96755953  0.58296453  0.71751466     0.13000
N1706       N  0.04746415  0.59437171  0.72100793    -0.82700
H1707       H  0.03991036  0.58817572  0.66770704     0.17800
N1708       N  0.95821691  0.57527712  0.66426271    -0.81300
H1709       H  0.04971247  0.62167772  0.72668146     0.33500
H1710       H  0.02806035  0.56648579  0.72776707     0.38000
H1711       H  0.97808933  0.57777763  0.65487723     0.33400
H1712       H  0.93126034  0.54322144  0.66414228     0.30100
H1713       H  0.86418297  0.47818355  0.71417323     0.33400
H1714       H  0.89820000  0.48713822  0.69926232     0.30100
H1715       H  0.85104088  0.64678889  0.69089869     0.38000
H1716       H  0.88156234  0.65214488  0.67529728     0.33500
C1717       C  0.60276598  0.58580891  0.68076897    -0.20300
C1718       C  0.58427705  0.58018600  0.69571163     0.36000
C1719       C  0.54352891  0.57825761  0.69748737    -0.26200
C1720       C  0.52138146  0.58247200  0.68472974     0.02400
C1721       C  0.53853723  0.58581672  0.66978730     0.27200
C1722       C  0.57901921  0.58750917  0.66795150    -0.25400
N1723       N  0.60752407  0.57830491  0.70908265    -0.82800
H1724       H  0.52980749  0.57530909  0.70893249     0.13000
C1725       C  0.48119956  0.58535188  0.68714132     0.02400
N1726       N  0.51492219  0.58801902  0.65657400    -0.81300
H1727       H  0.59240154  0.59087951  0.65642560     0.17800
C1728       C  0.48215049  0.62472695  0.68346600    -0.26200
C1729       C  0.44416754  0.62825569  0.68477880     0.35900
C1730       C  0.40438305  0.59141044  0.68982750    -0.20200
C1731       C  0.40413940  0.55267135  0.69413968    -0.25400
C1732       C  0.44204228  0.54910502  0.69266160     0.27200
H1733       H  0.51265908  0.65267905  0.67944756     0.13000
N1734       N  0.44591356  0.66901878  0.68104306    -0.82700
H1735       H  0.37377071  0.52440107  0.69807290     0.17800
N1736       N  0.44065035  0.50847943  0.69629357    -0.81300
H1737       H  0.47753831  0.69263974  0.67742177     0.33500
H1738       H  0.43961957  0.68105689  0.69118325     0.38000
H1739       H  0.40930284  0.48495483  0.70018434     0.33400
H1740       H  0.44609024  0.49623387  0.68604003     0.30100
H1741       H  0.53213876  0.59072841  0.64639362     0.33400
H1742       H  0.48519671  0.55815411  0.65594195     0.30100
H1743       H  0.63573179  0.60924643  0.71033517     0.38000
H1744       H  0.58876671  0.57294736  0.71907853     0.33500
C1745       C  0.73684321  0.65254372  0.64959521    -0.20300
C1746       C  0.71699630  0.64200572  0.63487627     0.36000
C1747       C  0.73785102  0.67085846  0.62248020    -0.26200
C1748       C  0.77783087  0.70998321  0.62458537     0.02400
C1749       C  0.79863227  0.71988396  0.63910978     0.27200
C1750       C  0.77801956  0.69071522  0.65152584    -0.25400
N1751       N  0.67543775  0.60232828  0.63266275    -0.82800
H1752       H  0.72237507  0.66347977  0.61120975     0.13000
C1753       C  0.79593793  0.74130152  0.61159793     0.02400
N1754       N  0.83966861  0.76015365  0.64126543    -0.81300
H1755       H  0.79303123  0.69875451  0.66286964     0.17800
C1756       C  0.78470100  0.77417864  0.61026954    -0.26200
C1757       C  0.79867694  0.80289021  0.59752240     0.35900
C1758       C  0.82447599  0.79841185  0.58589220    -0.20200
C1759       C  0.83641438  0.76594099  0.58753561    -0.25400
C1760       C  0.82194301  0.73697466  0.60018289     0.27200
H1761       H  0.76457291  0.77708109  0.61915852     0.13000
N1762       N  0.78720798  0.83675341  0.59647179    -0.82700
H1763       H  0.85653139  0.76265930  0.57879125     0.17800
N1764       N  0.83267046  0.70260085  0.60133503    -0.81300
H1765       H  0.76778353  0.83515880  0.60588294     0.33500
H1766       H  0.81639875  0.86708114  0.59721150     0.38000
H1767       H  0.85149003  0.70345963  0.59183865     0.33400
H1768       H  0.85246551  0.70890645  0.61108939     0.30100
H1769       H  0.85039879  0.76269656  0.65267696     0.33400
H1770       H  0.86327689  0.75867804  0.63434268     0.30100
H1771       H  0.68029595  0.57573169  0.63470794     0.38000
H1772       H  0.66509917  0.59971651  0.62119571     0.33500
C1773       C  0.15701769  0.88491442  0.86209314    -0.20300
C1774       C  0.16496060  0.92834806  0.86357510     0.36000
C1775       C  0.20805706  0.96387234  0.86194130    -0.26200
C1776       C  0.24300929  0.95678912  0.85860518     0.02400
C1777       C  0.23498284  0.91362945  0.85648438     0.27200
C1778       C  0.19187846  0.87800842  0.85816892    -0.25400
N1779       N  0.12925443  0.93616638  0.86668940    -0.82800
H1780       H  0.21460030  0.99726766  0.86340593     0.13000
C1781       C  0.28803219  0.99510821  0.85791696     0.02400
N1782       N  0.27082918  0.90612620  0.85325000    -0.81300
H1783       H  0.18580263  0.84469211  0.85704643     0.17800
C1784       C  0.31173924  0.01111347  0.87167698    -0.26200
C1785       C  0.35334945  0.04941134  0.87173471     0.35900
C1786       C  0.37158507  0.07174823  0.85768641    -0.20200
C1787       C  0.34825433  0.05495068  0.84385443    -0.25400
C1788       C  0.30612118  0.01720450  0.84388643     0.27200
H1789       H  0.29729711  0.99405985  0.88242603     0.13000
N1790       N  0.37704975  0.06590237  0.88598836    -0.82700
H1791       H  0.36209059  0.07243610  0.83312245     0.17800
N1792       N  0.28070328  0.00251138  0.82991474    -0.81300
H1793       H  0.35890730  0.04591270  0.89526969     0.33500
H1794       H  0.40580019  0.06407434  0.88524863     0.38000
H1795       H  0.29823740  0.02316697  0.82068473     0.33400
H1796       H  0.27584231  0.97140474  0.82723471     0.30100
H1797       H  0.25941456  0.87240061  0.85235953     0.33400
H1798       H  0.28367335  0.91971547  0.84242983     0.30100
H1799       H  0.10800580  0.92464620  0.85720498     0.38000
H1800       H  0.14074050  0.96992570  0.86747162     0.33500
C1801       C  0.02953061  0.81680433  0.89651604    -0.20300
C1802       C  0.98339159  0.79253718  0.89876151     0.36000
C1803       C  0.96496968  0.80143245  0.91179449    -0.26200
C1804       C  0.99170350  0.83339477  0.92267010     0.02400
C1805       C  0.03796547  0.85579903  0.92082007     0.27200
C1806       C  0.05598964  0.84758466  0.90776532    -0.25400
N1807       N  0.95530524  0.76028034  0.88764048    -0.82800
H1808       H  0.92958970  0.78370496  0.91342741     0.13000
C1809       C  0.97111925  0.84267243  0.93598759     0.02400
N1810       N  0.06789526  0.88639722  0.93203621    -0.81300
H1811       H  0.09149947  0.86554743  0.90650120     0.17800
C1812       C  0.95342231  0.81191334  0.94804133    -0.26200
C1813       C  0.93936440  0.82203371  0.96185079     0.35900
C1814       C  0.94389630  0.86406088  0.96366895    -0.20200
C1815       C  0.95963809  0.89400857  0.95129974    -0.25400
C1816       C  0.97249620  0.88339348  0.93733243     0.27200
H1817       H  0.95194763  0.78049665  0.94684615     0.13000
N1818       N  0.92163660  0.79029104  0.97417191    -0.82700
H1819       H  0.96154059  0.92562166  0.95251436     0.17800
N1820       N  0.98624126  0.91338912  0.92446074    -0.81300
H1821       H  0.92007485  0.76088738  0.97092315     0.33500
H1822       H  0.94349227  0.80281916  0.98346683     0.38000
H1823       H  0.98349129  0.94091121  0.92716376     0.33400
H1824       H  0.01961543  0.92510884  0.92244828     0.30100
H1825       H  0.08443318  0.91754314  0.92688083     0.33400
H1826       H  0.05174921  0.88878114  0.94177312     0.30100
H1827       H  0.96081807  0.73373811  0.88841415     0.38000
H1828       H  0.92220297  0.74775995  0.89051821     0.33500
C1829       C  0.73027786  0.43068106  0.85823160    -0.20300
C1830       C  0.75098643  0.44667158  0.84371153     0.36000
C1831       C  0.79376235  0.48312283  0.84311968    -0.26200
C1832       C  0.81583779  0.50476815  0.85661959     0.02400
C1833       C  0.79446981  0.49053921  0.87102166     0.27200
C1834       C  0.75169888  0.45370713  0.87168464    -0.25400
N1835       N  0.72843026  0.42600909  0.82960685    -0.82800
H1836       H  0.80996371  0.49501828  0.83205848     0.13000
C1837       C  0.86096169  0.54312764  0.85535571     0.02400
N1838       N  0.81670267  0.51303590  0.88491308    -0.81300
H1839       H  0.73573637  0.44203902  0.88277132     0.17800
C1840       C  0.86821129  0.58499211  0.85910646    -0.26200
C1841       C  0.90987251  0.62270297  0.85718904     0.35900
C1842       C  0.94538047  0.61825343  0.85163293    -0.20200
C1843       C  0.93792241  0.57599076  0.84802316    -0.25400
C1844       C  0.89609939  0.53840988  0.84983151     0.27200
H1845       H  0.84080507  0.58831562  0.86312816     0.13000
N1846       N  0.91565651  0.66544044  0.86038361    -0.82700
H1847       H  0.96485176  0.57220847  0.84377583     0.17800
N1848       N  0.88905311  0.49549348  0.84604885    -0.81300
H1849       H  0.88651176  0.66274085  0.86461436     0.33500
H1850       H  0.92229756  0.68241061  0.84989150     0.38000
H1851       H  0.91821985  0.49768217  0.84209354     0.33400
H1852       H  0.88049577  0.47698385  0.85624003     0.30100
H1853       H  0.79648204  0.49851783  0.89453778     0.33400
H1854       H  0.84397163  0.50889423  0.88629459     0.30100
H1855       H  0.70117677  0.43037653  0.82870337     0.38000
H1856       H  0.74835810  0.44155297  0.82000470     0.33500
C1857       C  0.16982453  0.64870296  0.75304366    -0.20300
C1858       C  0.19942760  0.67109131  0.76529504     0.36000
C1859       C  0.18396552  0.68121616  0.77885139    -0.26200
C1860       C  0.13963203  0.66937412  0.78041487     0.02400
C1861       C  0.11015325  0.64733671  0.76822957     0.27200
C1862       C  0.12550614  0.63719696  0.75472992    -0.25400
N1863       N  0.24465669  0.68221235  0.76415882    -0.82800
H1864       H  0.20634303  0.69773089  0.78834494     0.13000
C1865       C  0.12345352  0.67801979  0.79510082     0.02400
N1866       N  0.06464211  0.63521901  0.76965877    -0.81300
H1867       H  0.10265692  0.62005924  0.74545849     0.17800
C1868       C  0.11872181  0.71525188  0.79636122    -0.26200
C1869       C  0.09821173  0.72135538  0.80935889     0.35900
C1870       C  0.08198073  0.68933575  0.82122185    -0.20200
C1871       C  0.08835044  0.65307924  0.82020128    -0.25400
C1872       C  0.10907260  0.64716796  0.80727897     0.27200
H1873       H  0.12975650  0.73878496  0.78694334     0.13000
N1874       N  0.09225213  0.75890913  0.81025471    -0.82700
H1875       H  0.07628231  0.62881900  0.82939959     0.17800
N1876       N  0.11481768  0.60951253  0.80631369    -0.81300
H1877       H  0.10606641  0.77924548  0.80060532     0.33500
H1878       H  0.05843381  0.74739923  0.80987346     0.38000
H1879       H  0.10304021  0.59033507  0.81632028     0.33400
H1880       H  0.09538402  0.58987802  0.79720873     0.30100
H1881       H  0.04737400  0.61974811  0.75959661     0.33400
H1882       H  0.05078863  0.61192151  0.77852146     0.30100
H1883       H  0.24508258  0.65268866  0.76369491     0.38000
H1884       H  0.26196806  0.69857769  0.77410885     0.33500
C1885       C  0.32075226  0.12125628  0.22682537    -0.20300
C1886       C  0.31754577  0.15329519  0.23570922     0.36000
C1887       C  0.34395524  0.17053732  0.24898340    -0.26200
C1888       C  0.37409650  0.15730048  0.25330454     0.02400
C1889       C  0.37998170  0.12821502  0.24367134     0.27200
C1890       C  0.35297277  0.11030414  0.23074876    -0.25400
N1891       N  0.28619350  0.16659929  0.23177054    -0.82800
H1892       H  0.33999275  0.19329757  0.25631012     0.13000
C1893       C  0.39636628  0.17136357  0.26846745     0.02400
N1894       N  0.41224556  0.11536328  0.24676234    -0.81300
H1895       H  0.35682516  0.08673858  0.22384566     0.17800
C1896       C  0.38573976  0.13954710  0.28003858    -0.26200
C1897       C  0.40683857  0.15091345  0.29445671     0.35900
C1898       C  0.43944364  0.19505093  0.29729245    -0.20200
C1899       C  0.44911872  0.22708351  0.28582680    -0.25400
C1900       C  0.42806480  0.21558582  0.27138507     0.27200
H1901       H  0.36092328  0.10566241  0.27774435     0.13000
N1902       N  0.39496446  0.11795870  0.30625741    -0.82700
H1903       H  0.47418167  0.26097183  0.28796921     0.17800
N1904       N  0.43922957  0.24836645  0.25958228    -0.81300
H1905       H  0.37055217  0.08717294  0.30228015     0.33500
H1906       H  0.38114345  0.12622983  0.31543488     0.38000
H1907       H  0.46311328  0.27936228  0.26358608     0.33400
H1908       H  0.45351053  0.24059072  0.25042245     0.30100
H1909       H  0.43307507  0.12424581  0.23715832     0.33400
H1910       H  0.43249247  0.13278471  0.25602175     0.30100
H1911       H  0.29669555  0.18432468  0.22142558     0.38000
H1912       H  0.28644951  0.18845697  0.24000789     0.33500
C1913       C  0.24265142  0.98108521  0.19959598    -0.20300
C1914       C  0.25180875  0.95970229  0.21167089     0.36000
C1915       C  0.24722218  0.91830245  0.20917879    -0.26200
C1916       C  0.23346637  0.89713844  0.19487949     0.02400
C1917       C  0.22195653  0.91713860  0.18300608     0.27200
C1918       C  0.22668089  0.95896016  0.18549473    -0.25400
N1919       N  0.26501801  0.97939393  0.22663993    -0.82800
H1920       H  0.25447743  0.90247175  0.21856022     0.13000
C1921       C  0.23143193  0.85411194  0.19279519     0.02400
N1922       N  0.20615614  0.89529041  0.16843313    -0.81300
H1923       H  0.21900113  0.97479681  0.17624374     0.17800
C1924       C  0.19190197  0.81695294  0.18820298    -0.26200
C1925       C  0.18810719  0.77515844  0.18725485     0.35900
C1926       C  0.22439424  0.77034801  0.19146953    -0.20200
C1927       C  0.26403402  0.80772782  0.19582604    -0.25400
C1928       C  0.26817295  0.84952038  0.19630916     0.27200
H1929       H  0.16360257  0.82041325  0.18565132     0.13000
N1930       N  0.14704026  0.73756889  0.18271551    -0.82700
H1931       H  0.29220435  0.80437400  0.19876032     0.17800
N1932       N  0.30957750  0.88738571  0.20040560    -0.81300
H1933       H  0.12286643  0.74632133  0.18127790     0.33500
H1934       H  0.15169539  0.72779694  0.17181729     0.38000
H1935       H  0.33309559  0.87830299  0.20283813     0.33400
H1936       H  0.32100679  0.90807776  0.19074987     0.30100
H1937       H  0.19845151  0.91405433  0.16106130     0.33400
H1938       H  0.23180552  0.89307798  0.16320987     0.30100
H1939       H  0.29559585  0.98266601  0.22922610     0.38000
H1940       H  0.24216229  0.95798351  0.23474169     0.33500
C1941       C  0.00728739  0.98502953  0.08402014    -0.20300
C1942       C  0.00746454  0.01748111  0.09371906     0.36000
C1943       C  0.03501902  0.03241972  0.10665764    -0.26200
C1944       C  0.06288863  0.01594681  0.11032061     0.02400
C1945       C  0.06260250  0.98309742  0.10088210     0.27200
C1946       C  0.03463271  0.96777530  0.08788642    -0.25400
N1947       N  0.97913333  0.03499382  0.09072572    -0.82800
H1948       H  0.03445506  0.05711001  0.11399356     0.13000
C1949       C  0.09219475  0.03423643  0.12402547     0.02400
N1950       N  0.09122782  0.96605187  0.10436206    -0.81300
H1951       H  0.03497086  0.94296121  0.08057140     0.17800
C1952       C  0.08916841  0.00641853  0.13624079    -0.26200
C1953       C  0.11332466  0.02368120  0.15000317     0.35900
C1954       C  0.14013422  0.06979808  0.15164551    -0.20200
C1955       C  0.14409124  0.09723277  0.13920291    -0.25400
C1956       C  0.12101800  0.08000108  0.12538449     0.27200
H1957       H  0.06695131  0.97127313  0.13519563     0.13000
N1958       N  0.10891881  0.99475661  0.16250201    -0.82700
H1959       H  0.16538759  0.13253674  0.14028156     0.17800
N1960       N  0.12635879  0.10887102  0.11273507    -0.81300
H1961       H  0.08602120  0.96214039  0.15970662     0.33500
H1962       H  0.13912642  0.99601699  0.16373211     0.38000
H1963       H  0.14838707  0.14164207  0.11563800     0.33400
H1964       H  0.14059147  0.10103593  0.10357679     0.30100
H1965       H  0.08694533  0.94198978  0.09634658     0.33400
H1966       H  0.12364702  0.99189135  0.10312550     0.30100
H1967       H  0.99880013  0.06900084  0.08915224     0.38000
H1968       H  0.95969610  0.02963095  0.10053077     0.33500
C1969       C  0.19129551  0.19471420  0.18712674    -0.20300
C1970       C  0.15881078  0.20499758  0.18246767     0.36000
C1971       C  0.16643739  0.24794763  0.18452387    -0.26200
C1972       C  0.20550238  0.28085190  0.19119521     0.02400
C1973       C  0.23711568  0.27041687  0.19644717     0.27200
C1974       C  0.22947006  0.22732346  0.19453164    -0.25400
N1975       N  0.11834944  0.17204848  0.17555619    -0.82800
H1976       H  0.14203120  0.25611844  0.18068997     0.13000
C1977       C  0.21336610  0.32647677  0.19182456     0.02400
N1978       N  0.27747265  0.30397438  0.20320365    -0.81300
H1979       H  0.25449367  0.21984296  0.19817308     0.17800
C1980       C  0.21414413  0.34568342  0.20610337    -0.26200
C1981       C  0.21783227  0.38749167  0.20688476     0.35900
C1982       C  0.22126490  0.41055331  0.19306160    -0.20200
C1983       C  0.22162642  0.39157087  0.17883375    -0.25400
C1984       C  0.21799286  0.34997075  0.17808349     0.27200
H1985       H  0.21048043  0.32737568  0.21661954     0.13000
N1986       N  0.21666759  0.40584873  0.22159040    -0.82700
H1987       H  0.22481945  0.40934882  0.16822031     0.17800
N1988       N  0.21868647  0.33122490  0.16340859    -0.81300
H1989       H  0.21423103  0.38481352  0.23057618     0.33500
H1990       H  0.18796927  0.40785440  0.22197482     0.38000
H1991       H  0.22199720  0.35253187  0.15439518     0.33400
H1992       H  0.24677291  0.32813769  0.16312871     0.30100
H1993       H  0.29731702  0.29096453  0.20644057     0.33400
H1994       H  0.29477651  0.32754002  0.19466354     0.30100
H1995       H  0.10100224  0.14793673  0.18392712     0.38000
H1996       H  0.09855176  0.18529927  0.17253966     0.33500
C1997       C  0.17403817  0.87472258  0.34785720    -0.20300
C1998       C  0.18451423  0.89444851  0.36270301     0.36000
C1999       C  0.22338958  0.93526786  0.36467417    -0.26200
C2000       C  0.25172443  0.95652404  0.35220871     0.02400
C2001       C  0.24028500  0.93824998  0.33735150     0.27200
C2002       C  0.20177610  0.89756583  0.33533097    -0.25400
N2003       N  0.15656876  0.87282890  0.37577175    -0.82800
H2004       H  0.23234519  0.95001893  0.37604301     0.13000
C2005       C  0.29410210  0.99739504  0.35478498     0.02400
N2006       N  0.26813821  0.96110901  0.32439156    -0.81300
H2007       H  0.19362290  0.88351609  0.32385263     0.17800
C2008       C  0.33331572  0.99650448  0.35297687    -0.26200
C2009       C  0.37425075  0.03503559  0.35444711     0.35900
C2010       C  0.37603079  0.07509538  0.35787118    -0.20200
C2011       C  0.33677514  0.07577998  0.36001674    -0.25400
C2012       C  0.29569387  0.03732252  0.35823616     0.27200
H2013       H  0.33206288  0.96579762  0.35023460     0.13000
N2014       N  0.41392585  0.03337194  0.35255469    -0.82700
H2015       H  0.33819436  0.10674631  0.36240296     0.17800
N2016       N  0.25565991  0.03882334  0.35939565    -0.81300
H2017       H  0.41350902  0.01076021  0.36052045     0.33500
H2018       H  0.41387475  0.02164615  0.34146019     0.38000
H2019       H  0.26258124  0.07078199  0.36190473     0.33400
H2020       H  0.24069619  0.03106886  0.34852588     0.30100
H2021       H  0.25514913  0.94321894  0.31421957     0.33400
H2022       H  0.26810718  0.99067609  0.32302331     0.30100
H2023       H  0.15825314  0.84449543  0.37808423     0.38000
H2024       H  0.16838394  0.89255121  0.38562608     0.33500
C2025       C  0.10440319  0.74219096  0.31549926    -0.20300
C2026       C  0.08797805  0.69622568  0.31515584     0.36000
C2027       C  0.09753980  0.67758671  0.30232354    -0.26200
C2028       C  0.12168526  0.70359766  0.28964502     0.02400
C2029       C  0.13407904  0.74866883  0.28939028     0.27200
C2030       C  0.12627536  0.76740870  0.30239289    -0.25400
N2031       N  0.06336437  0.66893930  0.32800122    -0.82800
H2032       H  0.08687274  0.64279204  0.30232014     0.13000
C2033       C  0.13487961  0.68378532  0.27701635     0.02400
N2034       N  0.15393871  0.77633230  0.27609239    -0.81300
H2035       H  0.13752190  0.80234314  0.30221126     0.17800
C2036       C  0.10320571  0.65490070  0.26650496    -0.26200
C2037       C  0.11530995  0.63915982  0.25350298     0.35900
C2038       C  0.16016639  0.65232426  0.25102950    -0.20200
C2039       C  0.19152707  0.68043059  0.26183763    -0.25400
C2040       C  0.17937540  0.69576884  0.27487466     0.27200
H2041       H  0.06908754  0.64576799  0.26819558     0.13000
N2042       N  0.08239324  0.61121821  0.24254917    -0.82700
H2043       H  0.22580953  0.69040483  0.26015445     0.17800
N2044       N  0.21194959  0.72263258  0.28613176    -0.81300
H2045       H  0.05112780  0.60432918  0.24613175     0.33500
H2046       H  0.08904007  0.62893355  0.23222376     0.38000
H2047       H  0.24260027  0.72648889  0.28324137     0.33400
H2048       H  0.21581854  0.75407598  0.28575355     0.30100
H2049       H  0.18585771  0.80065540  0.27907717     0.33400
H2050       H  0.15643836  0.75896417  0.26676023     0.30100
H2051       H  0.03315057  0.66800793  0.32826820     0.38000
H2052       H  0.05590235  0.63647236  0.32623627     0.33500
C2053       C  0.98597060  0.78479313  0.39599393    -0.20300
C2054       C  0.94699982  0.78611939  0.39874485     0.36000
C2055       C  0.94288022  0.80532925  0.41238224    -0.26200
C2056       C  0.97710314  0.82376519  0.42317026     0.02400
C2057       C  0.01697667  0.82474643  0.42008176     0.27200
C2058       C  0.02114726  0.80539812  0.40642893    -0.25400
N2059       N  0.91176517  0.76788913  0.38768475    -0.82800
H2060       H  0.91253126  0.80519819  0.41478737     0.13000
C2061       C  0.96912602  0.83889809  0.43811213     0.02400
N2062       N  0.05230586  0.84385824  0.43108728    -0.81300
H2063       H  0.05117097  0.80470237  0.40425372     0.17800
C2064       C  0.95093106  0.80854974  0.45026326    -0.26200
C2065       C  0.93947675  0.82021945  0.46430218     0.35900
C2066       C  0.94645999  0.86315066  0.46618765    -0.20200
C2067       C  0.96584156  0.89390988  0.45412839    -0.25400
C2068       C  0.97669176  0.88196126  0.43999213     0.27200
H2069       H  0.94509417  0.77544043  0.44867299     0.13000
N2070       N  0.92101183  0.78876460  0.47667390    -0.82700
H2071       H  0.97117983  0.92688323  0.45557355     0.17800
N2072       N  0.99387423  0.91274957  0.42737775    -0.81300
H2073       H  0.91788803  0.75868883  0.47340236     0.33500
H2074       H  0.94330920  0.80056380  0.48586065     0.38000
H2075       H  0.99672754  0.94278486  0.43054766     0.33400
H2076       H  0.02574153  0.91911015  0.42505609     0.30100
H2077       H  0.07904069  0.84113611  0.42722126     0.33400
H2078       H  0.06323339  0.87751296  0.43170054     0.30100
H2079       H  0.92341931  0.78652904  0.37755944     0.38000
H2080       H  0.88530572  0.77113901  0.39151215     0.33500
C2081       C  0.91759718  0.65074855  0.36439033    -0.20300
C2082       C  0.87420469  0.64075971  0.36770795     0.36000
C2083       C  0.83912874  0.59804468  0.36537579    -0.26200
C2084       C  0.84632742  0.56484505  0.35972086     0.02400
C2085       C  0.88922677  0.57510196  0.35550285     0.27200
C2086       C  0.92452550  0.61806022  0.35788362    -0.25400
N2087       N  0.86540039  0.67400835  0.37320030    -0.82800
H2088       H  0.80599579  0.59054210  0.36820782     0.13000
C2089       C  0.80870781  0.51922638  0.35913407     0.02400
N2090       N  0.89684268  0.54174239  0.34912822    -0.81300
H2091       H  0.95768015  0.62562826  0.35509271     0.17800
C2092       C  0.79604233  0.49664465  0.34504880    -0.26200
C2093       C  0.75910273  0.45405287  0.34412463     0.35900
C2094       C  0.73350177  0.43446533  0.35756577    -0.20200
C2095       C  0.74741215  0.45681031  0.37171768    -0.25400
C2096       C  0.78490335  0.49865651  0.37266687     0.27200
H2097       H  0.81479036  0.51256349  0.33471919     0.13000
N2098       N  0.74701920  0.43154685  0.32953370    -0.82700
H2099       H  0.72888133  0.44159697  0.38215514     0.17800
N2100       N  0.79886425  0.52058409  0.38732601    -0.81300
H2101       H  0.76737291  0.45201318  0.32070744     0.33500
H2102       H  0.75323421  0.40544317  0.33024396     0.38000
H2103       H  0.77773306  0.50101355  0.39615761     0.33400
H2104       H  0.82978150  0.52451238  0.38977072     0.30100
H2105       H  0.93015661  0.55482434  0.34645899     0.33400
H2106       H  0.88914351  0.51782908  0.35765055     0.30100
H2107       H  0.84427437  0.67674299  0.36535657     0.38000
H2108       H  0.84902928  0.66360366  0.38379615     0.33500
C2109       C  0.06424492  0.10283853  0.02412049    -0.20300
C2110       C  0.08465539  0.12142172  0.03837206     0.36000
C2111       C  0.12290223  0.16287809  0.03855218    -0.26200
C2112       C  0.14125599  0.18641561  0.02486699     0.02400
C2113       C  0.12201989  0.16729701  0.01055402     0.27200
C2114       C  0.08371106  0.12544341  0.01031961    -0.25400
N2115       N  0.06662065  0.09804689  0.05262142    -0.82800
H2116       H  0.13846586  0.17723559  0.04948719     0.13000
C2117       C  0.18000873  0.23142832  0.02608222     0.02400
N2118       N  0.14089943  0.19072720  0.99640300    -0.81300
H2119       H  0.06822337  0.11104615  0.99938131     0.17800
C2120       C  0.22016518  0.24110400  0.01933146    -0.26200
C2121       C  0.25879693  0.28159670  0.02208915     0.35900
C2122       C  0.25699563  0.31315887  0.03180121    -0.20200
C2123       C  0.21615537  0.30383070  0.03795552    -0.25400
C2124       C  0.17774600  0.26353019  0.03513848     0.27200
H2125       H  0.22172100  0.21621741  0.01242949     0.13000
N2126       N  0.29982259  0.28990663  0.01546154    -0.82700
H2127       H  0.21410432  0.32802135  0.04510139     0.17800
N2128       N  0.13638116  0.25464974  0.04164202    -0.81300
H2129       H  0.29504923  0.26395931  0.00828743     0.33500
H2130       H  0.31997174  0.29084284  0.02450981     0.38000
H2131       H  0.14027140  0.28145956  0.04812146     0.33400
H2132       H  0.11537516  0.25085706  0.03248388     0.30100
H2133       H  0.12282512  0.17201861  0.98691146     0.33400
H2134       H  0.13823471  0.21905816  0.99646163     0.30100
H2135       H  0.06873981  0.06941125  0.05233657     0.38000
H2136       H  0.08544914  0.11644410  0.06204252     0.33500
C2137       C  0.28688814  0.53353448  0.13273546    -0.20300
C2138       C  0.33170574  0.55055471  0.12861523     0.36000
C2139       C  0.34226909  0.53424615  0.11537165    -0.26200
C2140       C  0.30917377  0.50109670  0.10629176     0.02400
C2141       C  0.26469305  0.48488545  0.11018695     0.27200
C2142       C  0.25407196  0.50095926  0.12334557    -0.25400
N2143       N  0.36633635  0.58335687  0.13803043    -0.82800
H2144       H  0.37643221  0.54647539  0.11235804     0.13000
C2145       C  0.32072877  0.48146298  0.09316236     0.02400
N2146       N  0.23038375  0.45198025  0.10069926    -0.81300
H2147       H  0.21970537  0.48802856  0.12620745     0.17800
C2148       C  0.30742498  0.43658179  0.09382251    -0.26200
C2149       C  0.31251035  0.41485737  0.08107061     0.35900
C2150       C  0.33194740  0.43867185  0.06736984    -0.20200
C2151       C  0.34763854  0.48418984  0.06699605    -0.25400
C2152       C  0.34153228  0.50572429  0.07968779     0.27200
H2153       H  0.29188040  0.41816808  0.10425217     0.13000
N2154       N  0.29763561  0.36858125  0.08193977    -0.82700
H2155       H  0.36253977  0.50248068  0.05648930     0.17800
N2156       N  0.35472211  0.55157266  0.07872701    -0.81300
H2157       H  0.28354895  0.35585148  0.09272974     0.33500
H2158       H  0.32532457  0.36496463  0.08099973     0.38000
H2159       H  0.36934227  0.56456521  0.06802458     0.33400
H2160       H  0.32620537  0.55387304  0.07926016     0.30100
H2161       H  0.19937508  0.44312912  0.10518535     0.33400
H2162       H  0.23244524  0.46612613  0.08987143     0.30100
H2163       H  0.36506805  0.56893665  0.14873643     0.38000
H2164       H  0.39716804  0.59260761  0.13327819     0.33500
C2165       C  0.48738034  0.30974521  0.91772550    -0.20300
C2166       C  0.50013532  0.35458399  0.91950370     0.36000
C2167       C  0.48834326  0.36833783  0.93298622    -0.26200
C2168       C  0.46380513  0.33838652  0.94470223     0.02400
C2169       C  0.44903528  0.29305868  0.94262690     0.27200
C2170       C  0.46091346  0.27933879  0.92912893    -0.25400
N2171       N  0.52512671  0.38604997  0.90763016    -0.82800
H2172       H  0.49916186  0.40291375  0.93455431     0.13000
C2173       C  0.45787156  0.35651356  0.95938002     0.02400
N2174       N  0.42367713  0.26041602  0.95412802    -0.81300
H2175       H  0.45065601  0.24481359  0.92781412     0.17800
C2176       C  0.41792199  0.35485720  0.96255683    -0.26200
C2177       C  0.41283193  0.37484133  0.97590705     0.35900
C2178       C  0.44865263  0.39700653  0.98621126    -0.20200
C2179       C  0.48850328  0.39835178  0.98293995    -0.25400
C2180       C  0.49344709  0.37837282  0.96965042     0.27200
H2181       H  0.39100718  0.33868278  0.95443036     0.13000
N2182       N  0.37241146  0.37483476  0.97851262    -0.82700
H2183       H  0.51612361  0.41548534  0.99073565     0.17800
N2184       N  0.53483975  0.38110471  0.96628066    -0.81300
H2185       H  0.35105771  0.36062704  0.96916160     0.33500
H2186       H  0.35676443  0.35439215  0.98798751     0.38000
H2187       H  0.55797441  0.39890088  0.97484636     0.33400
H2188       H  0.52978371  0.34913442  0.96658455     0.30100
H2189       H  0.39314793  0.23851154  0.94924735     0.33400
H2190       H  0.41727960  0.27423000  0.96373092     0.30100
H2191       H  0.50542148  0.37753501  0.89775211     0.38000
H2192       H  0.53201794  0.41761192  0.91076859     0.33500
C2193       C  0.70789640  0.74210520  0.02427005    -0.20300
C2194       C  0.68438061  0.72532009  0.01037981     0.36000
C2195       C  0.64619218  0.68370297  0.01037754    -0.26200
C2196       C  0.63098205  0.65899502  0.02399217     0.02400
C2197       C  0.65354376  0.67619674  0.03798356     0.27200
C2198       C  0.69170204  0.71795687  0.03800736    -0.25400
N2199       N  0.69925219  0.75068594  0.99638177    -0.82800
H2200       H  0.62840086  0.67016155  0.99969992     0.13000
C2201       C  0.59264123  0.61415518  0.02310285     0.02400
N2202       N  0.63867957  0.65048866  0.05192239    -0.81300
H2203       H  0.70978091  0.73101744  0.04865362     0.17800
C2204       C  0.59948765  0.57956709  0.01894093    -0.26200
C2205       C  0.56381321  0.53684178  0.01678564     0.35900
C2206       C  0.52047747  0.52881201  0.01881673    -0.20200
C2207       C  0.51381991  0.56343902  0.02333684    -0.25400
C2208       C  0.54959475  0.60628067  0.02533810     0.27200
H2209       H  0.63281700  0.58616473  0.01717633     0.13000
N2210       N  0.57141779  0.50162632  0.01258201    -0.82700
H2211       H  0.48057620  0.55737874  0.02475505     0.17800
N2212       N  0.54240638  0.64211659  0.02896379    -0.81300
H2213       H  0.60512124  0.51317773  0.01144128     0.33500
H2214       H  0.56018831  0.47895375  0.02168576     0.38000
H2215       H  0.50872576  0.63090699  0.02988806     0.33400
H2216       H  0.55593700  0.65417411  0.03983461     0.30100
H2217       H  0.65962499  0.66758052  0.06111376     0.33400
H2218       H  0.60790309  0.64630995  0.05475356     0.30100
H2219       H  0.69725545  0.77913675  0.99796934     0.38000
H2220       H  0.67821948  0.73352580  0.98721838     0.33500
C2221       C  0.97178287  0.44680341  0.56561126    -0.20300
C2222       C  0.96459322  0.47666142  0.57435826     0.36000
C2223       C  0.99145187  0.49759985  0.58729465    -0.26200
C2224       C  0.02443348  0.48849662  0.59177361     0.02400
C2225       C  0.03237519  0.45977948  0.58287063     0.27200
C2226       C  0.00625849  0.43951260  0.56987859    -0.25400
N2227       N  0.92924557  0.48438321  0.57050494    -0.82800
H2228       H  0.98558401  0.51973024  0.59427049     0.13000
C2229       C  0.04893381  0.50669210  0.60633427     0.02400
N2230       N  0.06644111  0.45063242  0.58729799    -0.81300
H2231       H  0.01256047  0.41725709  0.56316310     0.17800
C2232       C  0.03955828  0.47823977  0.61894048    -0.26200
C2233       C  0.06487695  0.49253508  0.63247376     0.35900
C2234       C  0.10042603  0.53621755  0.63336252    -0.20200
C2235       C  0.10838610  0.56526213  0.62101279    -0.25400
C2236       C  0.08340186  0.55068692  0.60735941     0.27200
H2237       H  0.01286668  0.44447360  0.61806258     0.13000
N2238       N  0.05476004  0.46287630  0.64530365    -0.82700
H2239       H  0.13533172  0.59878672  0.62176231     0.17800
N2240       N  0.09368227  0.57985303  0.59438666    -0.81300
H2241       H  0.02786685  0.43191275  0.64274388     0.33500
H2242       H  0.04516665  0.47529231  0.65455242     0.38000
H2243       H  0.11996720  0.61111913  0.59702922     0.33400
H2244       H  0.10443096  0.56768947  0.58539977     0.30100
H2245       H  0.06774525  0.42830999  0.57965109     0.33400
H2246       H  0.09657025  0.47997724  0.58633962     0.30100
H2247       H  0.89968857  0.45490935  0.57229952     0.38000
H2248       H  0.92883830  0.50746207  0.57801263     0.33500
C2249       C  0.89948599  0.10461922  0.52832240    -0.20300
C2250       C  0.93799742  0.14268768  0.53346132     0.36000
C2251       C  0.93884455  0.18304303  0.53401253    -0.26200
C2252       C  0.90205429  0.18622777  0.52970330     0.02400
C2253       C  0.86389927  0.14852393  0.52432925     0.27200
C2254       C  0.86328126  0.10826457  0.52346513    -0.25400
N2255       N  0.97620310  0.14041178  0.53798906    -0.82800
H2256       H  0.96826896  0.21225248  0.53797260     0.13000
C2257       C  0.90354125  0.22892248  0.53166512     0.02400
N2258       N  0.82559015  0.15101954  0.52018190    -0.81300
H2259       H  0.83386404  0.07929883  0.51943003     0.17800
C2260       C  0.89776933  0.25012992  0.51887452    -0.26200
C2261       C  0.90065799  0.29144348  0.52040846     0.35900
C2262       C  0.90927217  0.31168889  0.53509546    -0.20200
C2263       C  0.91472939  0.29003378  0.54784106    -0.25400
C2264       C  0.91155403  0.24883719  0.54631339     0.27200
H2265       H  0.89186536  0.23475007  0.50761907     0.13000
N2266       N  0.89591809  0.31316104  0.50708003    -0.82700
H2267       H  0.92091291  0.30502689  0.55916970     0.17800
N2268       N  0.91606832  0.22685590  0.55962005    -0.81300
H2269       H  0.88923528  0.29357773  0.49724642     0.33500
H2270       H  0.92624373  0.34166897  0.50513675     0.38000
H2271       H  0.92216508  0.24601526  0.56953417     0.33400
H2272       H  0.88588133  0.19802160  0.56136638     0.30100
H2273       H  0.80027459  0.12033359  0.51648550     0.33400
H2274       H  0.81417410  0.15877844  0.53017030     0.30100
H2275       H  0.98796906  0.13219608  0.52819586     0.38000
H2276       H  0.00142457  0.17120287  0.54164048     0.33500
C2277       C  0.85951463  0.52474524  0.51875047    -0.20300
C2278       C  0.82471485  0.53265468  0.51542564     0.36000
C2279       C  0.83192405  0.57562565  0.51652151    -0.26200
C2280       C  0.87276964  0.61058829  0.52118452     0.02400
C2281       C  0.90694823  0.60250266  0.52520753     0.27200
C2282       C  0.89990869  0.55950659  0.52400473    -0.25400
N2283       N  0.78208844  0.49697770  0.51112999    -0.82800
H2284       H  0.80547778  0.58196417  0.51382971     0.13000
C2285       C  0.87836411  0.65517835  0.52210622     0.02400
N2286       N  0.94877867  0.63806482  0.53021198    -0.81300
H2287       H  0.92655521  0.55343268  0.52662911     0.17800
C2288       C  0.88244614  0.67442430  0.53660666    -0.26200
C2289       C  0.88298048  0.71453940  0.53810569     0.35900
C2290       C  0.88029959  0.73631295  0.52474008    -0.20200
C2291       C  0.87642708  0.71681388  0.51021583    -0.25400
C2292       C  0.87580408  0.67671097  0.50875295     0.27200
H2293       H  0.88354662  0.65718420  0.54683508     0.13000
N2294       N  0.88423017  0.73210895  0.55317793    -0.82700
H2295       H  0.87411681  0.73303080  0.49992559     0.17800
N2296       N  0.87237420  0.65757090  0.49378608    -0.81300
H2297       H  0.88669047  0.71242536  0.56173874     0.33500
H2298       H  0.85392919  0.73038492  0.55484532     0.38000
H2299       H  0.87032118  0.67728904  0.48514526     0.33400
H2300       H  0.90153807  0.65717484  0.49180477     0.30100
H2301       H  0.97029437  0.62652353  0.53279627     0.33400
H2302       H  0.96269010  0.65992551  0.52094283     0.30100
H2303       H  0.76960388  0.47555418  0.52057547     0.35600
H2304       H  0.76022147  0.50844116  0.50910693     0.33500
C2305       C  0.80872224  0.39682157  0.48503277    -0.20300
C2306       C  0.77536255  0.35210393  0.48489222     0.36000
C2307       C  0.75086177  0.33383226  0.47125682    -0.26200
C2308       C  0.75946817  0.35951803  0.45783752     0.02400
C2309       C  0.79493756  0.40327028  0.45775905     0.27200
C2310       C  0.81864572  0.42164871  0.47139838    -0.25400
N2311       N  0.76520392  0.32611102  0.49873321    -0.82800
H2312       H  0.72372356  0.30018669  0.47129700     0.13000
C2313       C  0.72905762  0.34247840  0.44436717     0.02400
N2314       N  0.80611180  0.42907188  0.44383207    -0.81300
H2315       H  0.84472956  0.45581044  0.47146250     0.17800
C2316       C  0.70858162  0.36589670  0.43955942    -0.26200
C2317       C  0.68238955  0.35416286  0.42632737     0.35900
C2318       C  0.67473579  0.31665704  0.41759410    -0.20200
C2319       C  0.69447530  0.29240169  0.42276944    -0.25400
C2320       C  0.72173917  0.30510051  0.43596063     0.27200
H2321       H  0.71374309  0.39444613  0.44607036     0.13000
N2322       N  0.66451385  0.38152817  0.42220422    -0.82700
H2323       H  0.68931093  0.26372252  0.41637596     0.17800
N2324       N  0.74255448  0.28068242  0.44067566    -0.81300
H2325       H  0.67699558  0.39595692  0.41144103     0.33500
H2326       H  0.63020678  0.36238003  0.42182651     0.38000
H2327       H  0.73402011  0.25421116  0.43322129     0.33400
H2328       H  0.77657749  0.30150933  0.43961857     0.30100
H2329       H  0.83279046  0.46069016  0.44569950     0.33400
H2330       H  0.81645244  0.41413402  0.43571737     0.30100
H2331       H  0.75345652  0.33961151  0.50690530     0.38000
H2332       H  0.73971608  0.29395316  0.49671347     0.33500
C2333       C  0.55564703  0.63324494  0.86824995    -0.20300
C2334       C  0.55436506  0.61606203  0.85336207     0.36000
C2335       C  0.54911119  0.57378011  0.85197560    -0.26200
C2336       C  0.54505969  0.54865060  0.86510374     0.02400
C2337       C  0.54441556  0.56490520  0.87987833     0.27200
C2338       C  0.54992019  0.60711084  0.88131123    -0.25400
N2339       N  0.56119445  0.64242008  0.83979976    -0.82800
H2340       H  0.54987505  0.56100113  0.84066689     0.13000
C2341       C  0.54630293  0.50748663  0.86344112     0.02400
N2342       N  0.53934243  0.53879655  0.89336270    -0.81300
H2343       H  0.55050855  0.62002263  0.89272243     0.17800
C2344       C  0.58346959  0.50677987  0.86882638    -0.26200
C2345       C  0.58614645  0.46856031  0.86813873     0.35900
C2346       C  0.55098017  0.42978235  0.86159091    -0.20200
C2347       C  0.51407207  0.43096594  0.85586400    -0.25400
C2348       C  0.51116664  0.46937151  0.85690639     0.27200
H2349       H  0.61060029  0.53629373  0.87377430     0.13000
N2350       N  0.62540739  0.47074900  0.87393642    -0.82700
H2351       H  0.48687186  0.40151488  0.85093214     0.17800
N2352       N  0.47254260  0.46968034  0.85162418    -0.81300
H2353       H  0.63892955  0.46026157  0.86532943     0.33500
H2354       H  0.61758925  0.45040569  0.88362927     0.38000
H2355       H  0.44965241  0.43892661  0.84713758     0.33400
H2356       H  0.45770192  0.47481522  0.86124952     0.30100
H2357       H  0.53984996  0.55560110  0.90338549     0.33400
H2358       H  0.50817288  0.51057610  0.89282589     0.30100
H2359       H  0.53326393  0.64539196  0.83836600     0.38000
H2360       H  0.56305341  0.62622667  0.82995443     0.33500
C2361       C  0.76814448  0.85852343  0.96495555    -0.20300
C2362       C  0.76783444  0.88837845  0.95398657     0.36000
C2363       C  0.74138675  0.87187691  0.94070250    -0.26200
C2364       C  0.71518402  0.82641622  0.93822498     0.02400
C2365       C  0.71497445  0.79679005  0.94926832     0.27200
C2366       C  0.74204659  0.81312448  0.96229879    -0.25400
N2367       N  0.79493773  0.93514307  0.95614278    -0.82800
H2368       H  0.74174044  0.89449354  0.93210189     0.13000
C2369       C  0.68907524  0.80969136  0.92382016     0.02400
N2370       N  0.68688082  0.75011894  0.94724425    -0.81300
H2371       H  0.74234284  0.79009623  0.97053114     0.17800
C2372       C  0.69720536  0.78270687  0.91410533    -0.26200
C2373       C  0.67111163  0.76289007  0.90105252     0.35900
C2374       C  0.63566190  0.76980912  0.89769382    -0.20200
C2375       C  0.62896332  0.79877129  0.90693334    -0.25400
C2376       C  0.65527152  0.81865916  0.92005648     0.27200
H2377       H  0.72385623  0.77672604  0.91685123     0.13000
N2378       N  0.68060642  0.73586310  0.89114672    -0.82700
H2379       H  0.60206251  0.80442658  0.90428286     0.17800
N2380       N  0.64704978  0.84683977  0.92980506    -0.81300
H2381       H  0.70750041  0.73388225  0.89530187     0.33500
H2382       H  0.68994075  0.75147660  0.88038789     0.38000
H2383       H  0.62114134  0.85016171  0.92542241     0.33400
H2384       H  0.63675812  0.83142249  0.94056498     0.30100
H2385       H  0.69071448  0.73281335  0.95637351     0.33400
H2386       H  0.65431360  0.74333766  0.94771371     0.30100
H2387       H  0.82782323  0.94294695  0.95560780     0.38000
H2388       H  0.79041229  0.95227578  0.94711369     0.33500
C2389       C  0.34932382  0.64680156  0.74960448    -0.20300
C2390       C  0.37969735  0.63219431  0.75233414     0.36000
C2391       C  0.40677579  0.64712424  0.76553263    -0.26200
C2392       C  0.40433626  0.67655207  0.77584765     0.02400
C2393       C  0.37439363  0.69127283  0.77309757     0.27200
C2394       C  0.34748687  0.67651848  0.75999363    -0.25400
N2395       N  0.38399855  0.60355301  0.74151870    -0.82800
H2396       H  0.43053698  0.63664116  0.76762752     0.13000
C2397       C  0.43527016  0.69467681  0.78898005     0.02400
N2398       N  0.37196467  0.72172082  0.78356824    -0.81300
H2399       H  0.32486418  0.68836650  0.75790430     0.17800
C2400       C  0.46999709  0.73821506  0.78775655    -0.26200
C2401       C  0.49686995  0.76006929  0.80046949     0.35900
C2402       C  0.48903292  0.73771380  0.81470697    -0.20200
C2403       C  0.45599127  0.69322968  0.81567378    -0.25400
C2404       C  0.42832893  0.67162642  0.80308614     0.27200
H2405       H  0.47514814  0.75568581  0.77692548     0.13000
N2406       N  0.53174460  0.80502308  0.79902034    -0.82700
H2407       H  0.44988638  0.67583567  0.82656497     0.17800
N2408       N  0.39277891  0.62723496  0.80527942    -0.81300
H2409       H  0.53273245  0.81679943  0.78784173     0.33500
H2410       H  0.56150627  0.80561229  0.80069419     0.38000
H2411       H  0.37167754  0.62803285  0.81363123     0.33400
H2412       H  0.37409705  0.61452693  0.79527385     0.30100
H2413       H  0.34869307  0.72988317  0.77978884     0.33400
H2414       H  0.36069147  0.70568763  0.79418665     0.30100
H2415       H  0.39569759  0.62085029  0.73113132     0.38000
H2416       H  0.40774131  0.59601442  0.74527409     0.33500
C2417       C  0.54762052  0.06961744  0.85883468    -0.20300
C2418       C  0.50962472  0.02999500  0.85452796     0.36000
C2419       C  0.51125652  0.99086435  0.85391581    -0.26200
C2420       C  0.54992598  0.99044525  0.85753490     0.02400
C2421       C  0.58771269  0.02971685  0.86216464     0.27200
C2422       C  0.58593219  0.06881892  0.86300163    -0.25400
N2423       N  0.46954566  0.02960785  0.85081172    -0.82800
H2424       H  0.48243659  0.96054602  0.85031165     0.13000
C2425       C  0.55093239  0.94931247  0.85489967     0.02400
N2426       N  0.62829380  0.03030923  0.86512521    -0.81300
H2427       H  0.61513205  0.09918529  0.86632325     0.17800
C2428       C  0.55552956  0.93851396  0.83971773    -0.26200
C2429       C  0.55246437  0.89803265  0.83621646     0.35900
C2430       C  0.54518875  0.86779758  0.84824966    -0.20200
C2431       C  0.54130484  0.87907052  0.86351822    -0.25400
C2432       C  0.54324083  0.91920069  0.86693220     0.27200
H2433       H  0.56066514  0.96155756  0.83050596     0.13000
N2434       N  0.55656964  0.88758052  0.82048058    -0.82700
H2435       H  0.53489429  0.85569972  0.87273827     0.17800
N2436       N  0.53483261  0.92826665  0.88235602    -0.81300
H2437       H  0.56099267  0.91297364  0.81304365     0.33500
H2438       H  0.58510344  0.88538645  0.81970613     0.38000
H2439       H  0.52784805  0.90188607  0.88970325     0.33400
H2440       H  0.56358539  0.95521809  0.88654254     0.30100
H2441       H  0.65329054  0.06215384  0.86788233     0.33400
H2442       H  0.62388032  0.01100118  0.87487322     0.30100
H2443       H  0.45874559  0.03794280  0.86082576     0.38000
H2444       H  0.44482395  0.99791506  0.84775944     0.33500
C2445       C  0.84267049  0.21461157  0.68085977    -0.20300
C2446       C  0.86324767  0.24314233  0.66821978     0.36000
C2447       C  0.90054644  0.28456967  0.67076943    -0.26200
C2448       C  0.91735699  0.29813037  0.68568758     0.02400
C2449       C  0.89515150  0.27097176  0.69843866     0.27200
C2450       C  0.85764340  0.22946870  0.69590747    -0.25400
N2451       N  0.84632812  0.22977242  0.65284794    -0.82800
H2452       H  0.91739483  0.30599972  0.66105078     0.13000
C2453       C  0.96043457  0.33894173  0.68751415     0.02400
N2454       N  0.91178265  0.28495267  0.71379986    -0.81300
H2455       H  0.84148981  0.20776138  0.70562587     0.17800
C2456       C  0.96322145  0.37532121  0.69520268    -0.26200
C2457       C  0.00376410  0.41480281  0.69660604     0.35900
C2458       C  0.04217128  0.41776401  0.69004762    -0.20200
C2459       C  0.03904630  0.38084560  0.68257178    -0.25400
C2460       C  0.99879651  0.34134348  0.68147085     0.27200
H2461       H  0.93355322  0.37303131  0.69991217     0.13000
N2462       N  0.00575327  0.45187032  0.70441492    -0.82700
H2463       H  0.06829592  0.38255537  0.67773038     0.17800
N2464       N  0.99666100  0.30333506  0.67437508    -0.81300
H2465       H  0.97488075  0.44377182  0.70884314     0.33500
H2466       H  0.01382793  0.47665947  0.69620704     0.38000
H2467       H  0.02780696  0.31046625  0.67055559     0.33400
H2468       H  0.98719027  0.27909371  0.68290035     0.30100
H2469       H  0.89157332  0.26122857  0.72189584     0.33400
H2470       H  0.94257072  0.28720299  0.71445106     0.30100
H2471       H  0.81472533  0.22568840  0.65259696     0.38000
H2472       H  0.86520828  0.25459764  0.64487648     0.33500
C2473       C  0.78527269  0.07751432  0.65128022    -0.20300
C2474       C  0.74929130  0.04213600  0.64363968     0.36000
C2475       C  0.75720786  0.02180117  0.63098744    -0.26200
C2476       C  0.80021843  0.03579024  0.62587284     0.02400
C2477       C  0.83611675  0.06969395  0.63395514     0.27200
C2478       C  0.82826163  0.09040368  0.64638995    -0.25400
N2479       N  0.70487696  0.02782695  0.64837414    -0.82800
H2480       H  0.72962432  0.99597863  0.62473939     0.13000
C2481       C  0.80770665  0.01712438  0.61149656     0.02400
N2482       N  0.88053309  0.08315996  0.62941551    -0.81300
H2483       H  0.85610615  0.11679863  0.65235189     0.17800
C2484       C  0.83398975  0.04628169  0.59981260    -0.26200
C2485       C  0.84517708  0.03126409  0.58652509     0.35900
C2486       C  0.82933410  0.98572931  0.58473667    -0.20200
C2487       C  0.80067032  0.95619583  0.59593194    -0.25400
C2488       C  0.79001703  0.97141461  0.60938054     0.27200
H2489       H  0.84622395  0.08120899  0.60115448     0.13000
N2490       N  0.87238422  0.06215031  0.57482222    -0.82700
H2491       H  0.78782847  0.92122596  0.59446745     0.17800
N2492       N  0.76229811  0.94074567  0.62102038    -0.81300
H2493       H  0.88166636  0.09435518  0.57802079     0.33500
H2494       H  0.85336102  0.05531166  0.56482530     0.38000
H2495       H  0.75181454  0.90840697  0.61762022     0.33400
H2496       H  0.78136696  0.94655873  0.63094576     0.30100
H2497       H  0.90319069  0.10888723  0.63637603     0.33400
H2498       H  0.88542594  0.05651971  0.63129932     0.30100
H2499       H  0.69874049  0.05346475  0.64603856     0.38000
H2500       H  0.68244562  0.00093764  0.64178272     0.33500
C2501       C  0.40643641  0.76937211  0.69165180    -0.20300
C2502       C  0.42994474  0.79138936  0.67812186     0.36000
C2503       C  0.46843605  0.83261016  0.67946119    -0.26200
C2504       C  0.48394254  0.85190987  0.69394441     0.02400
C2505       C  0.46134482  0.82935928  0.70743304     0.27200
C2506       C  0.42291281  0.78839952  0.70613656    -0.25400
N2507       N  0.41374200  0.77319183  0.66308253    -0.82800
H2508       H  0.48576543  0.85041398  0.66914672     0.13000
C2509       C  0.52176539  0.89725035  0.69484961     0.02400
N2510       N  0.47714469  0.84859985  0.72238776    -0.81300
H2511       H  0.40550160  0.77137117  0.71654823     0.17800
C2512       C  0.51545627  0.92938087  0.70198344    -0.26200
C2513       C  0.55040599  0.97241844  0.70387800     0.35900
C2514       C  0.59275987  0.98363554  0.69843875    -0.20200
C2515       C  0.59855117  0.95202677  0.69052171    -0.25400
C2516       C  0.56345918  0.90865479  0.68881596     0.27200
H2517       H  0.48299878  0.92062815  0.70620499     0.13000
N2518       N  0.54297627  0.00469345  0.71132465    -0.82700
H2519       H  0.63094322  0.96059130  0.68630425     0.17800
N2520       N  0.57023597  0.87593255  0.68141121    -0.81300
H2521       H  0.54844046  0.02879121  0.70311845     0.33500
H2522       H  0.51017522  0.99078784  0.71485930     0.38000
H2523       H  0.60276791  0.88976647  0.67757912     0.33400
H2524       H  0.56552031  0.85233866  0.68973088     0.30100
H2525       H  0.45616057  0.82821606  0.73110882     0.33400
H2526       H  0.50757238  0.85066667  0.72411945     0.30100
H2527       H  0.41831511  0.74620586  0.66170700     0.38000
H2528       H  0.43263140  0.79564633  0.65444521     0.33500
C2529       C  0.66658224  0.10678141  0.73442846    -0.20300
C2530       C  0.69557838  0.15177328  0.73792943     0.36000
C2531       C  0.68902348  0.16971588  0.75156110    -0.26200
C2532       C  0.65410538  0.14387226  0.76162842     0.02400
C2533       C  0.62713955  0.09862824  0.75872432     0.27200
C2534       C  0.63356718  0.08061060  0.74522067    -0.25400
N2535       N  0.73057456  0.17952381  0.72752035    -0.82800
H2536       H  0.70995231  0.20445419  0.75400043     0.13000
C2537       C  0.64339084  0.16470508  0.77450877     0.02400
N2538       N  0.59272293  0.07135287  0.76941607    -0.81300
H2539       H  0.61188502  0.04585981  0.74303108     0.17800
C2540       C  0.60411782  0.16593955  0.77375303    -0.26200
C2541       C  0.59063339  0.18235801  0.78608068     0.35900
C2542       C  0.61660379  0.19713270  0.79952529    -0.20200
C2543       C  0.65705010  0.19800903  0.79999294    -0.25400
C2544       C  0.67053884  0.18149328  0.78762757     0.27200
H2545       H  0.58375593  0.15364800  0.76352018     0.13000
N2546       N  0.55089416  0.18445265  0.78498496    -0.82700
H2547       H  0.67722415  0.20990493  0.81028057     0.17800
N2548       N  0.71089352  0.18051315  0.78850193    -0.81300
H2549       H  0.53557357  0.17229229  0.77433560     0.33500
H2550       H  0.55989179  0.21769528  0.78527587     0.38000
H2551       H  0.72705756  0.19417564  0.79891126     0.33400
H2552       H  0.70271707  0.14749186  0.78862245     0.30100
H2553       H  0.57556459  0.03874902  0.76557973     0.33400
H2554       H  0.60767910  0.07121264  0.77983827     0.30100
H2555       H  0.71615427  0.18353807  0.71755394     0.38000
H2556       H  0.74988858  0.21096244  0.73220036     0.33500
loop_ 
_geom_bond_atom_site_label_1 
_geom_bond_atom_site_label_2 
_geom_bond_distance 
_geom_bond_site_symmetry_2 
_ccdc_geom_bond_type 
C1            N2   1.355       .  A
C1            N6   1.360       .  A
C1         C2529   1.494       .  S
N2            C3   1.354       .  A
C3            N4   1.358       .  A
C3         C2514   1.478   1_545  S
N4            C5   1.360       .  A
C5            N6   1.363       .  A
C5            C9   1.469       .  S
C7            N8   1.361       .  A
C7           N12   1.358       .  A
C7         C2473   1.491       .  S
N8            C9   1.362       .  A
C9           N10   1.359       .  A
N10          C11   1.357       .  A
C11          N12   1.357       .  A
C11        C2445   1.479       .  S
C13          N14   1.358       .  A
C13          N18   1.357       .  A
C13        C2402   1.480       .  S
N14          C15   1.359       .  A
C15          N16   1.361       .  A
C15        C2430   1.486       .  S
N16          C17   1.360       .  A
C17          N18   1.360       .  A
C17          C21   1.470       .  S
C19          N20   1.361       .  A
C19          N24   1.357       .  A
C19        C2374   1.482       .  S
N20          C21   1.363       .  A
C21          N22   1.359       .  A
N22          C23   1.356       .  A
C23          N24   1.355       .  A
C23        C2333   1.480       .  S
C25          N26   1.356       .  A
C25          N30   1.361       .  A
C25        C2305   1.480       .  S
N26          C27   1.356       .  A
C27          N28   1.358       .  A
C27        C2277   1.479       .  S
N28          C29   1.360       .  A
C29          N30   1.364       .  A
C29          C33   1.473       .  S
C31          N32   1.361       .  A
C31          N36   1.356       .  A
C31        C2221   1.489       .  S
N32          C33   1.364       .  A
C33          N34   1.361       .  A
N34          C35   1.359       .  A
C35          N36   1.355       .  A
C35        C2262   1.486       .  S
C37          N38   1.357   1_556  A
C37          N42   1.359   1_556  A
C37        C2178   1.486       .  S
N38          C39   1.358       .  A
C39          N40   1.358       .  A
C39        C2206   1.478       .  S
N40          C41   1.358       .  A
C41          N42   1.362       .  A
C41          C47   1.470       .  S
C43          N44   1.359       .  A
C43          N48   1.361       .  A
C43        C2150   1.484       .  S
N44          C45   1.360       .  A
C45          N46   1.357       .  A
C45        C2122   1.489       .  S
N46          C47   1.357       .  A
C47          N48   1.362       .  A
C49          N50   1.357       .  A
C49          N54   1.359   1_655  A
C49        C2053   1.480       .  S
N50          C51   1.357       .  A
C51          N52   1.357       .  A
C51        C2081   1.481       .  S
N52          C53   1.358   1_655  A
C53          N54   1.362       .  A
C53          C57   1.469       .  S
C55          N56   1.360       .  A
C55          N60   1.358       .  A
C55        C2025   1.492       .  S
N56          C57   1.363       .  A
C57          N58   1.358       .  A
N58          C59   1.357       .  A
C59          N60   1.359       .  A
C59        C1997   1.489       .  S
C61          N62   1.360       .  A
C61          N66   1.358       .  A
C61        C1954   1.485       .  S
N62          C63   1.362       .  A
C63          N64   1.362       .  A
C63          C71   1.474       .  S
N64          C65   1.361       .  A
C65          N66   1.357       .  A
C65        C1969   1.491       .  S
C67          N68   1.353       .  A
C67          N72   1.361       .  A
C67        C1885   1.489       .  S
N68          C69   1.352       .  A
C69          N70   1.360       .  A
C69        C1913   1.486   1_545  S
N70          C71   1.363       .  A
C71          N72   1.364       .  A
C73          N74   1.358       .  A
C73          N78   1.357       .  A
C73        C1870   1.479       .  S
N74          C75   1.360   1_455  A
C75          N76   1.361   1_655  A
C75        C1842   1.488       .  S
N76          C77   1.359       .  A
C77          N78   1.359       .  A
C77          C81   1.470       .  S
C79          N80   1.362       .  A
C79          N84   1.357       .  A
C79        C1801   1.488       .  S
N80          C81   1.364       .  A
C81          N82   1.359       .  A
N82          C83   1.355       .  A
C83          N84   1.353       .  A
C83        C1773   1.477       .  S
C85          N86   1.354       .  A
C85          N90   1.356       .  A
C85        C1745   1.473       .  S
N86          C87   1.356       .  A
C87          N88   1.361       .  A
C87        C1717   1.485       .  S
N88          C89   1.360       .  A
C89          N90   1.361       .  A
C89          C93   1.470       .  S
C91          N92   1.364       .  A
C91          N96   1.353       .  A
C91        C1674   1.492       .  S
N92          C93   1.366       .  A
C93          N94   1.359       .  A
N94          C95   1.354       .  A
C95          N96   1.352       .  A
C95        C1689   1.482       .  S
C97          N98   1.366       .  A
C97         N102   1.354       .  A
C97        C1633   1.491       .  S
N98          C99   1.369       .  A
C99         N100   1.357       .  A
C99         C105   1.474       .  S
N100        C101   1.354       .  A
C101        N102   1.353       .  A
C101       C1618   1.477       .  S
C103        N104   1.360       .  A
C103        N108   1.354       .  A
C103       C1562   1.482       .  S
N104        C105   1.366       .  A
C105        N106   1.358       .  A
N106        C107   1.359       .  A
C107        N108   1.358       .  A
C107       C1577   1.485       .  S
C109        N110   1.359   1_556  A
C109        N114   1.357       .  A
C109       C1506   1.485       .  S
N110        C111   1.361       .  A
C111        N112   1.359       .  A
C111        C119   1.471       .  S
N112        C113   1.359       .  A
C113        N114   1.358   1_554  A
C113       C1534   1.485       .  S
C115        N116   1.354       .  A
C115        N120   1.360       .  A
C115       C1478   1.484       .  S
N116        C117   1.352       .  A
C117        N118   1.357       .  A
C117       C1437   1.482       .  S
N118        C119   1.361       .  A
C119        N120   1.363       .  A
C121        N122   1.364       .  A
C121        N126   1.355       .  A
C121       C1381   1.490       .  S
N122        C123   1.368       .  A
C123        N124   1.360       .  A
C123        C129   1.478       .  S
N124        C125   1.358       .  A
C125        N126   1.357       .  A
C125       C1422   1.480       .  S
C127        N128   1.364       .  A
C127        N132   1.356       .  A
C127       C1353   1.494       .  S
N128        C129   1.367       .  A
C129        N130   1.360       .  A
N130        C131   1.358   1_455  A
C131        N132   1.354   1_655  A
C131       C1338   1.472       .  S
C133        N134   1.359       .  A
C133        N138   1.356       .  A
C133       C1269   1.488       .  S
N134        C135   1.362       .  A
C135        N136   1.358       .  A
C135        C143   1.473       .  S
N136        C137   1.360       .  A
C137        N138   1.358       .  A
C137       C1297   1.481       .  S
C139        N140   1.355       .  A
C139        N144   1.363       .  A
C139       C1213   1.487       .  S
N140        C141   1.355       .  A
C141        N142   1.357       .  A
C141       C1241   1.492   1_545  S
N142        C143   1.360       .  A
C143        N144   1.366       .  A
C145        N146   1.353       .  A
C145        N150   1.361       .  A
C145       C1198   1.484       .  S
N146        C147   1.354       .  A
C147        N148   1.358       .  A
C147       C1157   1.471       .  S
N148        C149   1.360       .  A
C149        N150   1.366       .  A
C149        C153   1.474       .  S
C151        N152   1.363       .  A
C151        N156   1.354       .  A
C151       C1142   1.485       .  S
N152        C153   1.367       .  A
C153        N154   1.360       .  A
N154        C155   1.357       .  A
C155        N156   1.353       .  A
C155       C1101   1.480       .  S
C157        N158   1.357       .  A
C157        N162   1.359       .  A
C157       C1086   1.494       .  S
N158        C159   1.358       .  A
C159        N160   1.361       .  A
C159        C165   1.472       .  S
N160        C161   1.360       .  A
C161        N162   1.360       .  A
C161       C1058   1.483       .  S
C163        N164   1.361       .  A
C163        N168   1.360   1_545  A
C163       C1017   1.485       .  S
N164        C165   1.360       .  A
C165        N166   1.360       .  A
N166        C167   1.357   1_545  A
C167        N168   1.359       .  A
C167        C989   1.479       .  S
C169        N170   1.356       .  A
C169        N174   1.359       .  A
C169        C933   1.487       .  S
N170        C171   1.358       .  A
C171        N172   1.359       .  A
C171        C179   1.466       .  S
N172        C173   1.359       .  A
C173        N174   1.358       .  A
C173        C961   1.485       .  S
C175        N176   1.358       .  A
C175        N180   1.358       .  A
C175        C877   1.479       .  S
N176        C177   1.359       .  A
C177        N178   1.357       .  A
C177        C905   1.490       .  S
N178        C179   1.358       .  A
C179        N180   1.359       .  A
C181        N182   1.359       .  A
C181        N186   1.354       .  A
C181        C821   1.482       .  S
N182        C183   1.362       .  A
C183        N184   1.359       .  A
C183        C189   1.467       .  S
N184        C185   1.357       .  A
C185        N186   1.356       .  A
C185        C849   1.483       .  S
C187        N188   1.360       .  A
C187        N192   1.354       .  A
C187        C793   1.483       .  S
N188        C189   1.363       .  A
C189        N190   1.359       .  A
N190        C191   1.356       .  A
C191        N192   1.353       .  A
C191        C765   1.476       .  S
C193        N194   1.352       .  A
C193        N198   1.358   1_556  A
C193        C750   1.475       .  S
N194        C195   1.354   1_556  A
C195        N196   1.361       .  A
C195        C709   1.486       .  S
N196        C197   1.362       .  A
C197        N198   1.363       .  A
C197        C203   1.472       .  S
C199        N200   1.359       .  A
C199        N204   1.361       .  A
C199        C653   1.492       .  S
N200        C201   1.358       .  A
C201        N202   1.357       .  A
C201        C694   1.489       .  S
N202        C203   1.360       .  A
C203        N204   1.364       .  A
C205        N206   1.359       .  A
C205        N210   1.355       .  A
C205        C610   1.482       .  S
N206        C207   1.364       .  A
C207        N208   1.359       .  A
C207        C213   1.470       .  S
N208        C209   1.358       .  A
C209        N210   1.357       .  A
C209        C625   1.487       .  S
C211        N212   1.363   1_655  A
C211        N216   1.357       .  A
C211        C554   1.489       .  S
N212        C213   1.365       .  A
C213        N214   1.357   1_455  A
N214        C215   1.354       .  A
C215        N216   1.355       .  A
C215        C569   1.471       .  S
O217       Zr253   2.462       .  S
O217        C228   1.296       .  A
O218       Zr252   2.460       .  S
O218        C229   1.296       .  A
O219       Zr225   2.431       .  S
O219        C230   1.291       .  A
O220       Zr225   2.422       .  S
O220        C231   1.289       .  A
O221       Zr255   2.443       .  S
O221        C231   1.293       .  A
O222       Zr254   2.431       .  S
O222        C230   1.290       .  A
O223       Zr225   2.412       .  S
O223        C229   1.287       .  A
O224       Zr225   2.425       .  S
O224        C228   1.289       .  A
Zr225       O226   2.339       .  S
Zr225       O227   2.332       .  S
Zr225       O235   2.336       .  S
Zr225       O233   2.334       .  S
O226       Zr252   2.337       .  S
O226       Zr255   2.338       .  S
O227       Zr253   2.338       .  S
O227       Zr254   2.340       .  S
C228       C2542   1.478       .  S
C229       C1829   1.483       .  S
C230       C1661   1.475       .  S
C231        C582   1.479       .  S
H232        O233   0.966       .  S
O233       Zr252   2.338       .  S
O233       Zr254   2.333       .  S
H234        O235   0.965       .  S
O235       Zr253   2.338       .  S
O235       Zr255   2.345       .  S
O236       Zr252   2.442       .  S
O236        C259   1.294       .  A
O237       Zr253   2.439       .  S
O237        C260   1.293       .  A
O238       Zr254   2.440       .  S
O238        C261   1.293       .  A
O239       Zr255   2.450       .  S
O239        C262   1.294       .  A
O240       Zr255   2.431       .  S
O240        C263   1.291       .  A
O241       Zr254   2.438       .  S
O241        C264   1.292       .  A
O242       Zr256   2.463       .  S
O242        C265   1.297       .  A
O243       Zr256   2.445       .  S
O243        C266   1.294       .  A
O244       Zr254   2.424       .  S
O244        C265   1.289       .  A
O245       Zr255   2.439       .  S
O245        C266   1.292       .  A
O246       Zr252   2.424       .  S
O246        C261   1.289       .  A
O247       Zr253   2.445       .  S
O247        C264   1.293       .  A
O248       Zr253   2.457       .  S
O248        C263   1.296       .  A
O249       Zr252   2.432       .  S
O249        C262   1.291       .  A
O250       Zr256   2.441       .  S
O250        C259   1.293       .  A
O251       Zr256   2.435       .  S
O251        C260   1.292       .  A
Zr252       O258   2.341       .  S
Zr252       O270   2.346       .  S
Zr253       O257   2.343       .  S
Zr253       O268   2.353       .  S
Zr254       O258   2.335       .  S
Zr254       O268   2.342       .  S
Zr255       O257   2.340       .  S
Zr255       O270   2.343       .  S
Zr256       O257   2.341       .  S
Zr256       O258   2.335       .  S
Zr256       O270   2.351       .  S
Zr256       O268   2.346       .  S
C259       C2165   1.484       .  S
C260       C1786   1.476       .  S
C261       C2346   1.482       .  S
C262        C737   1.482       .  S
C263       C2417   1.484       .  S
C264       C1073   1.476       .  S
C265        C638   1.492       .  S
C266       C1493   1.479       .  S
H267        O268   0.964       .  S
H269        O270   0.967       .  S
O271       Zr307   2.443   1_556  S
O271        C282   1.294       .  A
O272       Zr306   2.440   1_545  S
O272        C283   1.293       .  A
O273       Zr279   2.432       .  S
O273        C284   1.290       .  A
O274       Zr279   2.437   1_556  S
O274        C285   1.293   1_565  A
O275       Zr309   2.448   1_556  S
O275        C285   1.293   1_565  A
O276       Zr308   2.429       .  S
O276        C284   1.291       .  A
O277       Zr279   2.428   1_545  S
O277        C283   1.291       .  A
O278       Zr279   2.430   1_556  S
O278        C282   1.290       .  A
Zr279       O280   2.338       .  S
Zr279       O281   2.340       .  S
Zr279       O289   2.334   1_554  S
Zr279       O287   2.339       .  S
O280       Zr306   2.345       .  S
O280       Zr309   2.342       .  S
O281       Zr307   2.341       .  S
O281       Zr308   2.338       .  S
C282       C2361   1.485       .  S
C283        C722   1.479       .  S
C284       C1450   1.470       .  S
C285        C541   1.499       .  S
H286        O287   0.965       .  S
O287       Zr306   2.336       .  S
O287       Zr308   2.337       .  S
H288        O289   0.965       .  S
O289       Zr307   2.337   1_556  S
O289       Zr309   2.334   1_556  S
O290       Zr306   2.440       .  S
O290        C313   1.293       .  A
O291       Zr307   2.454       .  S
O291        C314   1.295       .  A
O292       Zr308   2.442       .  S
O292        C315   1.293       .  A
O293       Zr309   2.444   1_445  S
O293        C316   1.293       .  A
O294       Zr309   2.447   1_556  S
O294        C317   1.294       .  A
O295       Zr308   2.433       .  S
O295        C318   1.291       .  A
O296       Zr310   2.448       .  S
O296        C319   1.295       .  A
O297       Zr310   2.441       .  S
O297        C320   1.293   1_655  A
O298       Zr308   2.428       .  S
O298        C319   1.289       .  A
O299       Zr309   2.443   1_455  S
O299        C320   1.294       .  A
O300       Zr306   2.454       .  S
O300        C315   1.295       .  A
O301       Zr307   2.435       .  S
O301        C318   1.292       .  A
O302       Zr307   2.435   1_556  S
O302        C317   1.291       .  A
O303       Zr306   2.429   1_545  S
O303        C316   1.292   1_655  A
O304       Zr310   2.446       .  S
O304        C313   1.294       .  A
O305       Zr310   2.431       .  S
O305        C314   1.290       .  A
Zr306       O312   2.334       .  S
Zr306       O324   2.343       .  S
Zr307       O311   2.342       .  S
Zr307       O322   2.342       .  S
Zr308       O312   2.338       .  S
Zr308       O322   2.344       .  S
Zr309       O311   2.346       .  S
Zr309       O324   2.348       .  S
Zr310       O311   2.345       .  S
Zr310       O312   2.340       .  S
Zr310       O324   2.340       .  S
Zr310       O322   2.344       .  S
C313       C1941   1.493   1_655  S
C314        C681   1.488       .  S
C315       C1226   1.484       .  S
C316       C2109   1.479       .  S
C317       C1814   1.478       .  S
C318       C2193   1.473       .  S
C319        C806   1.484       .  S
C320       C1521   1.483       .  S
H321        O322   0.965       .  S
H323        O324   0.965       .  S
O325       Zr361   2.447       .  S
O325        C336   1.293       .  A
O326       Zr360   2.445       .  S
O326        C337   1.293       .  A
O327       Zr333   2.438       .  S
O327        C338   1.293       .  A
O328       Zr333   2.434       .  S
O328        C339   1.291       .  A
O329       Zr363   2.429       .  S
O329        C339   1.291       .  A
O330       Zr362   2.444       .  S
O330        C338   1.294       .  A
O331       Zr333   2.436       .  S
O331        C337   1.292       .  A
O332       Zr333   2.444       .  S
O332        C336   1.294       .  A
Zr333       O334   2.341       .  S
Zr333       O335   2.340       .  S
Zr333       O343   2.334       .  S
Zr333       O341   2.339       .  S
O334       Zr360   2.338       .  S
O334       Zr363   2.338       .  S
O335       Zr361   2.335       .  S
O335       Zr362   2.340       .  S
C336       C2318   1.503       .  S
C337       C1114   1.489       .  S
C338        C946   1.487       .  S
C339       C1325   1.478       .  S
H340        O341   0.966       .  S
O341       Zr360   2.347       .  S
O341       Zr362   2.345       .  S
H342        O343   0.966       .  S
O343       Zr361   2.336       .  S
O343       Zr363   2.344       .  S
O344       Zr360   2.444       .  S
O344        C367   1.294       .  A
O345       Zr361   2.436       .  S
O345        C368   1.292       .  A
O346       Zr362   2.436       .  S
O346        C369   1.292       .  A
O347       Zr363   2.439       .  S
O347        C370   1.293       .  A
O348       Zr363   2.430       .  S
O348        C371   1.290       .  A
O349       Zr362   2.449       .  S
O349        C372   1.294       .  A
O350       Zr364   2.443       .  S
O350        C373   1.293       .  A
O351       Zr364   2.435       .  S
O351        C374   1.292       .  A
O352       Zr362   2.435       .  S
O352        C373   1.292       .  A
O353       Zr363   2.446       .  S
O353        C374   1.294       .  A
O354       Zr360   2.430       .  S
O354        C369   1.291       .  A
O355       Zr361   2.444       .  S
O355        C372   1.293       .  A
O356       Zr361   2.434       .  S
O356        C371   1.293       .  A
O357       Zr360   2.443       .  S
O357        C370   1.293       .  A
O358       Zr364   2.432       .  S
O358        C367   1.291       .  A
O359       Zr364   2.427       .  S
O359        C368   1.291       .  A
Zr360       O366   2.345       .  S
Zr360       O378   2.343       .  S
Zr361       O365   2.340       .  S
Zr361       O376   2.341       .  S
Zr362       O366   2.345       .  S
Zr362       O376   2.337       .  S
Zr363       O365   2.336       .  S
Zr363       O378   2.335       .  S
Zr364       O365   2.336       .  S
Zr364       O366   2.339       .  S
Zr364       O378   2.340       .  S
Zr364       O376   2.339       .  S
C367       C1898   1.480       .  S
C368       C1170   1.480       .  S
C369       C2010   1.472       .  S
C370       C1282   1.485       .  S
C371       C2094   1.484       .  S
C372       C1646   1.478       .  S
C373       C1409   1.487       .  S
C374        C834   1.486       .  S
H375        O376   0.967       .  S
H377        O378   0.969       .  S
O379       Zr415   2.419       .  S
O379        C390   1.288       .  A
O380       Zr414   2.451       .  S
O380        C391   1.295       .  A
O381       Zr387   2.431       .  S
O381        C392   1.291       .  A
O382       Zr387   2.436       .  S
O382        C393   1.293       .  A
O383       Zr417   2.443       .  S
O383        C393   1.293       .  A
O384       Zr416   2.448       .  S
O384        C392   1.295       .  A
O385       Zr387   2.453       .  S
O385        C391   1.294       .  A
O386       Zr387   2.436       .  S
O386        C390   1.293       .  A
Zr387       O388   2.338       .  S
Zr387       O389   2.345       .  S
Zr387       O397   2.338       .  S
Zr387       O395   2.340       .  S
O388       Zr414   2.336       .  S
O388       Zr417   2.346       .  S
O389       Zr415   2.341       .  S
O389       Zr416   2.339       .  S
C390       C2501   1.478       .  S
C391       C1857   1.494       .  S
C392       C1002   1.480       .  S
C393       C2389   1.485       .  S
H394        O395   0.963       .  S
O395       Zr414   2.337       .  S
O395       Zr416   2.351       .  S
H396        O397   0.964       .  S
O397       Zr415   2.343       .  S
O397       Zr417   2.342       .  S
O398       Zr414   2.431       .  S
O398        C421   1.291       .  A
O399       Zr415   2.434       .  S
O399        C422   1.291       .  A
O400       Zr416   2.439       .  S
O400        C423   1.292       .  A
O401       Zr417   2.450       .  S
O401        C424   1.294       .  A
O402       Zr417   2.433       .  S
O402        C425   1.292       .  A
O403       Zr416   2.437       .  S
O403        C426   1.292       .  A
O404       Zr418   2.433       .  S
O404        C427   1.292       .  A
O405       Zr418   2.438       .  S
O405        C428   1.292       .  A
O406       Zr416   2.447       .  S
O406        C427   1.294       .  A
O407       Zr417   2.444       .  S
O407        C428   1.293       .  A
O408       Zr414   2.428       .  S
O408        C423   1.291       .  A
O409       Zr415   2.451       .  S
O409        C426   1.294       .  A
O410       Zr415   2.447       .  S
O410        C425   1.294       .  A
O411       Zr414   2.433       .  S
O411        C424   1.291       .  A
O412       Zr418   2.441       .  S
O412        C421   1.294       .  A
O413       Zr418   2.446       .  S
O413        C422   1.293       .  A
Zr414       O420   2.339       .  S
Zr414       O432   2.345       .  S
Zr415       O419   2.340       .  S
Zr415       O430   2.341       .  S
Zr416       O420   2.336       .  S
Zr416       O430   2.348       .  S
Zr417       O419   2.342       .  S
Zr417       O432   2.339       .  S
Zr418       O419   2.336       .  S
Zr418       O420   2.336       .  S
Zr418       O432   2.340       .  S
Zr418       O430   2.344       .  S
C421       C2458   1.484       .  S
C422       C1549   1.479       .  S
C423       C1702   1.476       .  S
C424        C597   1.479       .  S
C425       C1730   1.482       .  S
C426        C890   1.482       .  S
C427       C2234   1.480       .  S
C428       C1045   1.479       .  S
H429        O430   0.965       .  S
H431        O432   0.963       .  S
O433       Zr469   2.449       .  S
O433        C444   1.295       .  A
O434       Zr468   2.443       .  S
O434        C445   1.292       .  A
O435       Zr441   2.446       .  S
O435        C446   1.294       .  A
O436       Zr441   2.436       .  S
O436        C447   1.292       .  A
O437       Zr471   2.430       .  S
O437        C447   1.291       .  A
O438       Zr470   2.420       .  S
O438        C446   1.288       .  A
O439       Zr441   2.441       .  S
O439        C445   1.293       .  A
O440       Zr441   2.444       .  S
O440        C444   1.293       .  A
Zr441       O442   2.345       .  S
Zr441       O443   2.342       .  S
Zr441       O451   2.344       .  S
Zr441       O449   2.338       .  S
O442       Zr468   2.341       .  S
O442       Zr471   2.341       .  S
O443       Zr469   2.337       .  S
O443       Zr470   2.339       .  S
C444       C2137   1.495       .  S
C445       C1254   1.475       .  S
C446       C1465   1.474       .  S
C447        C862   1.475       .  S
H448        O449   0.965       .  S
O449       Zr468   2.346       .  S
O449       Zr470   2.345       .  S
H450        O451   0.967       .  S
O451       Zr469   2.335       .  S
O451       Zr471   2.345       .  S
O452       Zr468   2.452       .  S
O452        C475   1.296       .  A
O453       Zr469   2.427       .  S
O453        C476   1.290       .  A
O454       Zr470   2.439       .  S
O454        C477   1.292       .  A
O455       Zr471   2.441       .  S
O455        C478   1.293       .  A
O456       Zr471   2.447       .  S
O456        C479   1.293       .  A
O457       Zr470   2.456       .  S
O457        C480   1.296       .  A
O458       Zr472   2.447       .  S
O458        C481   1.294       .  A
O459       Zr472   2.447       .  S
O459        C482   1.295       .  A
O460       Zr470   2.423       .  S
O460        C481   1.290       .  A
O461       Zr471   2.440       .  S
O461        C482   1.292       .  A
O462       Zr468   2.440       .  S
O462        C477   1.294       .  A
O463       Zr469   2.440       .  S
O463        C480   1.292       .  A
O464       Zr469   2.432       .  S
O464        C479   1.292       .  A
O465       Zr468   2.449       .  S
O465        C478   1.294       .  A
O466       Zr472   2.449       .  S
O466        C475   1.294       .  A
O467       Zr472   2.436       .  S
O467        C476   1.292       .  A
Zr468       O474   2.343       .  S
Zr468       O486   2.337       .  S
Zr469       O473   2.347       .  S
Zr469       O484   2.341       .  S
Zr470       O474   2.343       .  S
Zr470       O484   2.329       .  S
Zr471       O473   2.336       .  S
Zr471       O486   2.342       .  S
Zr472       O473   2.344       .  S
Zr472       O474   2.338       .  S
Zr472       O486   2.340       .  S
Zr472       O484   2.346       .  S
C475       C2038   1.495       .  S
C476       C1310   1.467       .  S
C477       C1926   1.483       .  S
C478       C1185   1.491       .  S
C479       C1982   1.484       .  S
C480        C666   1.495       .  S
C481        C778   1.482       .  S
C482       C1366   1.488       .  S
H483        O484   0.966       .  S
H485        O486   0.971       .  S
O487       Zr523   2.432       .  S
O487        C498   1.291       .  A
O488       Zr522   2.446       .  S
O488        C499   1.294       .  A
O489       Zr495   2.445       .  S
O489        C500   1.293       .  A
O490       Zr495   2.443       .  S
O490        C501   1.293       .  A
O491       Zr525   2.438       .  S
O491        C501   1.293       .  A
O492       Zr524   2.447       .  S
O492        C500   1.294       .  A
O493       Zr495   2.424       .  S
O493        C499   1.289       .  A
O494       Zr495   2.443       .  S
O494        C498   1.293       .  A
Zr495       O496   2.342       .  S
Zr495       O497   2.339       .  S
Zr495       O505   2.338       .  S
Zr495       O503   2.347       .  S
O496       Zr522   2.342       .  S
O496       Zr525   2.339       .  S
O497       Zr523   2.342       .  S
O497       Zr524   2.339       .  S
C498       C2486   1.484       .  S
C499       C1590   1.475       .  S
C500        C974   1.490       .  S
C501       C1758   1.484       .  S
H502        O503   0.964       .  S
O503       Zr522   2.347       .  S
O503       Zr524   2.347       .  S
H504        O505   0.967       .  S
O505       Zr523   2.338       .  S
O505       Zr525   2.345       .  S
O506       Zr522   2.452       .  S
O506        C529   1.295       .  A
O507       Zr523   2.441   1_445  S
O507        C530   1.293       .  A
O508       Zr524   2.432       .  S
O508        C531   1.292       .  A
O509       Zr525   2.451       .  S
O509        C532   1.295       .  A
O510       Zr525   2.450       .  S
O510        C533   1.295       .  A
O511       Zr524   2.442   1_545  S
O511        C534   1.293       .  A
O512       Zr526   2.447   1_545  S
O512        C535   1.294       .  A
O513       Zr526   2.434   1_455  S
O513        C536   1.292       .  A
O514       Zr524   2.450   1_545  S
O514        C535   1.295       .  A
O515       Zr525   2.449       .  S
O515        C536   1.295   1_655  A
O516       Zr522   2.445       .  S
O516        C531   1.293       .  A
O517       Zr523   2.433   1_545  S
O517        C534   1.292       .  A
O518       Zr523   2.443       .  S
O518        C533   1.293       .  A
O519       Zr522   2.434       .  S
O519        C532   1.292       .  A
O520       Zr526   2.429       .  S
O520        C529   1.290       .  A
O521       Zr526   2.414   1_445  S
O521        C530   1.288       .  A
Zr522       O528   2.335       .  S
Zr522       O540   2.342       .  S
Zr523       O527   2.340       .  S
Zr523       O538   2.339       .  S
Zr524       O528   2.339       .  S
Zr524       O538   2.339       .  S
Zr525       O527   2.342       .  S
Zr525       O540   2.346       .  S
Zr526       O527   2.343       .  S
Zr526       O528   2.331       .  S
Zr526       O540   2.340       .  S
Zr526       O538   2.337       .  S
C529       C2066   1.480       .  S
C530       C1605   1.476       .  S
C531       C1129   1.483       .  S
C532       C2290   1.488       .  S
C533       C1030   1.493       .  S
C534       C2249   1.483       .  S
C535       C1394   1.494       .  S
C536        C918   1.486       .  S
H537        O538   0.965   1_545  S
H539        O540   0.966       .  S
C541        C542   1.420       .  A
C541        C546   1.409       .  A
C542        C543   1.409       .  A
C542        N547   1.438   1_655  S
C543        C544   1.403       .  A
C543        H548   1.083   1_655  S
C544        C549   1.498       .  S
C544        C545   1.415       .  A
C545        C546   1.406       .  A
C545        N550   1.439       .  S
C546        H551   1.083       .  S
N547        H567   1.045       .  S
N547        H568   1.046       .  S
C549        C552   1.403       .  A
C549        C556   1.418   1_655  A
N550        H565   1.046       .  S
N550        H566   1.045       .  S
C552        C553   1.401       .  A
C552        H557   1.084       .  S
C553        C554   1.412       .  A
C553        N558   1.432       .  S
C554        C555   1.406   1_655  A
C555        C556   1.413       .  A
C555        H559   1.083       .  S
C556        N560   1.438       .  S
N558        H561   1.046       .  S
N558        H562   1.046       .  S
N560        H563   1.046       .  S
N560        H564   1.045       .  S
C569        C570   1.410       .  A
C569        C574   1.403       .  A
C570        C571   1.402       .  A
C570        N575   1.438       .  S
C571        C572   1.401       .  A
C571        H576   1.084       .  S
C572        C577   1.473       .  S
C572        C573   1.409       .  A
C573        C574   1.404       .  A
C573        N578   1.438       .  S
C574        H579   1.084       .  S
N575        H595   1.046       .  S
N575        H596   1.046       .  S
C577        C580   1.401       .  A
C577        C584   1.406       .  A
N578        H593   1.046       .  S
N578        H594   1.043       .  S
C580        C581   1.404       .  A
C580        H585   1.084       .  S
C581        C582   1.412       .  A
C581        N586   1.438       .  S
C582        C583   1.407       .  A
C583        C584   1.403       .  A
C583        H587   1.084       .  S
C584        N588   1.438       .  S
N586        H589   1.046       .  S
N586        H590   1.046       .  S
N588        H591   1.046       .  S
N588        H592   1.044       .  S
C597        C598   1.413       .  A
C597        C602   1.404       .  A
C598        C599   1.409       .  A
C598        N603   1.438       .  S
C599        C600   1.403       .  A
C599        H604   1.084       .  S
C600        C605   1.482       .  S
C600        C601   1.408       .  A
C601        C602   1.405       .  A
C601        N606   1.437       .  S
C602        H607   1.084       .  S
N603        H623   1.046       .  S
N603        H624   1.046       .  S
C605        C608   1.400       .  A
C605        C612   1.410       .  A
N606        H621   1.046       .  S
N606        H622   1.045       .  S
C608        C609   1.403       .  A
C608        H613   1.084       .  S
C609        C610   1.413       .  A
C609        N614   1.438       .  S
C610        C611   1.406       .  A
C611        C612   1.411       .  A
C611        H615   1.084       .  S
C612        N616   1.437       .  S
N614        H617   1.046       .  S
N614        H618   1.046       .  S
N616        H619   1.046       .  S
N616        H620   1.046       .  S
C625        C626   1.416       .  A
C625        C630   1.406       .  A
C626        C627   1.409       .  A
C626        N631   1.438       .  S
C627        C628   1.404       .  A
C627        H632   1.083       .  S
C628        C633   1.490       .  S
C628        C629   1.411       .  A
C629        C630   1.402       .  A
C629        N634   1.438       .  S
C630        H635   1.084       .  S
N631        H651   1.045       .  S
N631        H652   1.046       .  S
C633        C636   1.401       .  A
C633        C640   1.411       .  A
N634        H649   1.046       .  S
N634        H650   1.045       .  S
C636        C637   1.403       .  A
C636        H641   1.084       .  S
C637        C638   1.419       .  A
C637        N642   1.439       .  S
C638        C639   1.408       .  A
C639        C640   1.411       .  A
C639        H643   1.083       .  S
C640        N644   1.438       .  S
N642        H645   1.046       .  S
N642        H646   1.046       .  S
N644        H647   1.045       .  S
N644        H648   1.046       .  S
C653        C654   1.417       .  A
C653        C658   1.405       .  A
C654        C655   1.414   1_655  A
C654        N659   1.437       .  S
C655        C656   1.406       .  A
C655        H660   1.083       .  S
C656        C661   1.492       .  S
C656        C657   1.409   1_455  A
C657        C658   1.403       .  A
C657        N662   1.438       .  S
C658        H663   1.083       .  S
N659        H679   1.046   1_655  S
N659        H680   1.046   1_655  S
C661        C664   1.403       .  A
C661        C668   1.410       .  A
N662        H677   1.046       .  S
N662        H678   1.046       .  S
C664        C665   1.405       .  A
C664        H669   1.084       .  S
C665        C666   1.415       .  A
C665        N670   1.438       .  S
C666        C667   1.412       .  A
C667        C668   1.413       .  A
C667        H671   1.083       .  S
C668        N672   1.438       .  S
N670        H673   1.046       .  S
N670        H674   1.046       .  S
N672        H675   1.046       .  S
N672        H676   1.045   1_455  S
C681        C682   1.419       .  A
C681        C686   1.409       .  A
C682        C683   1.393       .  A
C682        N687   1.433       .  S
C683        C684   1.400       .  A
C683        H688   1.084       .  S
C684        C689   1.488       .  S
C684        C685   1.412       .  A
C685        C686   1.412       .  A
C685        N690   1.437   1_554  S
C686        H691   1.083       .  S
N687        H707   1.046       .  S
N687        H708   1.044       .  S
C689        C692   1.404       .  A
C689        C696   1.411       .  A
N690        H705   1.046       .  S
N690        H706   1.046       .  S
C692        C693   1.411       .  A
C692        H697   1.083       .  S
C693        C694   1.417       .  A
C693        N698   1.438       .  S
C694        C695   1.405       .  A
C695        C696   1.402       .  A
C695        H699   1.083       .  S
C696        N700   1.438       .  S
N698        H701   1.046       .  S
N698        H702   1.046       .  S
N700        H703   1.046       .  S
N700        H704   1.046       .  S
C709        C710   1.418       .  A
C709        C714   1.407       .  A
C710        C711   1.402       .  A
C710        N715   1.439   1_554  S
C711        C712   1.399       .  A
C711        H716   1.084   1_554  S
C712        C717   1.480       .  S
C712        C713   1.408       .  A
C713        C714   1.407       .  A
C713        N718   1.437       .  S
C714        H719   1.083       .  S
N715        H735   1.046       .  S
N715        H736   1.046       .  S
C717        C720   1.402       .  A
C717        C724   1.409       .  A
N718        H733   1.046       .  S
N718        H734   1.046       .  S
C720        C721   1.406       .  A
C720        H725   1.084       .  S
C721        C722   1.413       .  A
C721        N726   1.438       .  S
C722        C723   1.404       .  A
C723        C724   1.402       .  A
C723        H727   1.081       .  S
C724        N728   1.438       .  S
N726        H729   1.045       .  S
N726        H730   1.046       .  S
N728        H731   1.046       .  S
N728        H732   1.046       .  S
C737        C738   1.415       .  A
C737        C742   1.405       .  A
C738        C739   1.405       .  A
C738        N743   1.438       .  S
C739        C740   1.399       .  A
C739        H744   1.084       .  S
C740        C745   1.479       .  S
C740        C741   1.409       .  A
C741        C742   1.407       .  A
C741        N746   1.438       .  S
C742        H747   1.084       .  S
N743        H763   1.046       .  S
N743        H764   1.046       .  S
C745        C748   1.403       .  A
C745        C752   1.407       .  A
N746        H761   1.046       .  S
N746        H762   1.046       .  S
C748        C749   1.409       .  A
C748        H753   1.084       .  S
C749        C750   1.411       .  A
C749        N754   1.437   1_556  S
C750        C751   1.403       .  A
C751        C752   1.402       .  A
C751        H755   1.084       .  S
C752        N756   1.438       .  S
N754        H757   1.046   1_554  S
N754        H758   1.045       .  S
N756        H759   1.046       .  S
N756        H760   1.046       .  S
C765        C766   1.413       .  A
C765        C770   1.404       .  A
C766        C767   1.406       .  A
C766        N771   1.438       .  S
C767        C768   1.402       .  A
C767        H772   1.084       .  S
C768        C773   1.478       .  S
C768        C769   1.409       .  A
C769        C770   1.399       .  A
C769        N774   1.439       .  S
C770        H775   1.084       .  S
N771        H791   1.046       .  S
N771        H792   1.046       .  S
C773        C776   1.400       .  A
C773        C780   1.409       .  A
N774        H789   1.046       .  S
N774        H790   1.045       .  S
C776        C777   1.397   1_655  A
C776        H781   1.084       .  S
C777        C778   1.413       .  A
C777        N782   1.433       .  S
C778        C779   1.406       .  A
C779        C780   1.406   1_455  A
C779        H783   1.082       .  S
C780        N784   1.437       .  S
N782        H785   1.046       .  S
N782        H786   1.046       .  S
N784        H787   1.046       .  S
N784        H788   1.046       .  S
C793        C794   1.416       .  A
C793        C798   1.406       .  A
C794        C795   1.399       .  A
C794        N799   1.439       .  S
C795        C796   1.398       .  A
C795        H800   1.084       .  S
C796        C801   1.480       .  S
C796        C797   1.410       .  A
C797        C798   1.410       .  A
C797        N802   1.437       .  S
C798        H803   1.083       .  S
N799        H819   1.045       .  S
N799        H820   1.046       .  S
C801        C804   1.400       .  A
C801        C808   1.409       .  A
N802        H817   1.046       .  S
N802        H818   1.046       .  S
C804        C805   1.407       .  A
C804        H809   1.084       .  S
C805        C806   1.419       .  A
C805        N810   1.438       .  S
C806        C807   1.404       .  A
C807        C808   1.402       .  A
C807        H811   1.084       .  S
C808        N812   1.438       .  S
N810        H813   1.046       .  S
N810        H814   1.045       .  S
N812        H815   1.045       .  S
N812        H816   1.046       .  S
C821        C822   1.413       .  A
C821        C826   1.405       .  A
C822        C823   1.410       .  A
C822        N827   1.437       .  S
C823        C824   1.404       .  A
C823        H828   1.083       .  S
C824        C829   1.484       .  S
C824        C825   1.408       .  A
C825        C826   1.401       .  A
C825        N830   1.438       .  S
C826        H831   1.084       .  S
N827        H847   1.046       .  S
N827        H848   1.045       .  S
C829        C832   1.402       .  A
C829        C836   1.409       .  A
N830        H845   1.046       .  S
N830        H846   1.046       .  S
C832        C833   1.404       .  A
C832        H837   1.084       .  S
C833        C834   1.416       .  A
C833        N838   1.439       .  S
C834        C835   1.407       .  A
C835        C836   1.408       .  A
C835        H839   1.083       .  S
C836        N840   1.438       .  S
N838        H841   1.046       .  S
N838        H842   1.046       .  S
N840        H843   1.046       .  S
N840        H844   1.046       .  S
C849        C850   1.417       .  A
C849        C854   1.406       .  A
C850        C851   1.407       .  A
C850        N855   1.438       .  S
C851        C852   1.402       .  A
C851        H856   1.084       .  S
C852        C857   1.478       .  S
C852        C853   1.407       .  A
C853        C854   1.398       .  A
C853        N858   1.439       .  S
C854        H859   1.083       .  S
N855        H875   1.045       .  S
N855        H876   1.046       .  S
C857        C860   1.402       .  A
C857        C864   1.408       .  A
N858        H873   1.046       .  S
N858        H874   1.046       .  S
C860        C861   1.400       .  A
C860        H865   1.084       .  S
C861        C862   1.413       .  A
C861        N866   1.439       .  S
C862        C863   1.405       .  A
C863        C864   1.405       .  A
C863        H867   1.084       .  S
C864        N868   1.437       .  S
N866        H869   1.046       .  S
N866        H870   1.046       .  S
N868        H871   1.046       .  S
N868        H872   1.046       .  S
C877        C878   1.412       .  A
C877        C882   1.405       .  A
C878        C879   1.405       .  A
C878        N883   1.438       .  S
C879        C880   1.400       .  A
C879        H884   1.084       .  S
C880        C885   1.477       .  S
C880        C881   1.408       .  A
C881        C882   1.407       .  A
C881        N886   1.437       .  S
C882        H887   1.084       .  S
N883        H903   1.046       .  S
N883        H904   1.046       .  S
C885        C888   1.400       .  A
C885        C892   1.407       .  A
N886        H901   1.046       .  S
N886        H902   1.045       .  S
C888        C889   1.405       .  A
C888        H893   1.084       .  S
C889        C890   1.413       .  A
C889        N894   1.436       .  S
C890        C891   1.404       .  A
C891        C892   1.407       .  A
C891        H895   1.081       .  S
C892        N896   1.437       .  S
N894        H897   1.046       .  S
N894        H898   1.046       .  S
N896        H899   1.046       .  S
N896        H900   1.045       .  S
C905        C906   1.420       .  A
C905        C910   1.406       .  A
C906        C907   1.409       .  A
C906        N911   1.438       .  S
C907        C908   1.402       .  A
C907        H912   1.084       .  S
C908        C913   1.483       .  S
C908        C909   1.407       .  A
C909        C910   1.402       .  A
C909        N914   1.438       .  S
C910        H915   1.083       .  S
N911        H931   1.046       .  S
N911        H932   1.046       .  S
C913        C916   1.403       .  A
C913        C920   1.408       .  A
N914        H929   1.046       .  S
N914        H930   1.046       .  S
C916        C917   1.402       .  A
C916        H921   1.084       .  S
C917        C918   1.411       .  A
C917        N922   1.432       .  S
C918        C919   1.409       .  A
C919        C920   1.407       .  A
C919        H923   1.084       .  S
C920        N924   1.438   1_565  S
N922        H925   1.046       .  S
N922        H926   1.046       .  S
N924        H927   1.046       .  S
N924        H928   1.046       .  S
C933        C934   1.421   1_565  A
C933        C938   1.406       .  A
C934        C935   1.401       .  A
C934        N939   1.432       .  S
C935        C936   1.401       .  A
C935        H940   1.084       .  S
C936        C941   1.483       .  S
C936        C937   1.408       .  A
C937        C938   1.403   1_545  A
C937        N942   1.438       .  S
C938        H943   1.083       .  S
N939        H959   1.045       .  S
N939        H960   1.045   1_545  S
C941        C944   1.401       .  A
C941        C948   1.409       .  A
N942        H957   1.046   1_545  S
N942        H958   1.046       .  S
C944        C945   1.401       .  A
C944        H949   1.084       .  S
C945        C946   1.414       .  A
C945        N950   1.433       .  S
C946        C947   1.408       .  A
C947        C948   1.408       .  A
C947        H951   1.083       .  S
C948        N952   1.437       .  S
N950        H953   1.046       .  S
N950        H954   1.046       .  S
N952        H955   1.046       .  S
N952        H956   1.046       .  S
C961        C962   1.415       .  A
C961        C966   1.406       .  A
C962        C963   1.406       .  A
C962        N967   1.438       .  S
C963        C964   1.401       .  A
C963        H968   1.084       .  S
C964        C969   1.482       .  S
C964        C965   1.409       .  A
C965        C966   1.408       .  A
C965        N970   1.438       .  S
C966        H971   1.083       .  S
N967        H987   1.046       .  S
N967        H988   1.045       .  S
C969        C972   1.400       .  A
C969        C976   1.417       .  A
N970        H985   1.045       .  S
N970        H986   1.045       .  S
C972        C973   1.404       .  A
C972        H977   1.084       .  S
C973        C974   1.413       .  A
C973        N978   1.437   1_565  S
C974        C975   1.407       .  A
C975        C976   1.406       .  A
C975        H979   1.080       .  S
C976        N980   1.439       .  S
N978        H981   1.046       .  S
N978        H982   1.046       .  S
N980        H983   1.045       .  S
N980        H984   1.043       .  S
C989        C990   1.411       .  A
C989        C994   1.406       .  A
C990        C991   1.404       .  A
C990        N995   1.437       .  S
C991        C992   1.401       .  A
C991        H996   1.084       .  S
C992        C997   1.477       .  S
C992        C993   1.408       .  A
C993        C994   1.408       .  A
C993        N998   1.437       .  S
C994        H999   1.084   1_565  S
N995       H1015   1.046       .  S
N995       H1016   1.045       .  S
C997       C1000   1.400       .  A
C997       C1004   1.408       .  A
N998       H1013   1.046       .  S
N998       H1014   1.045       .  S
C1000      C1001   1.404       .  A
C1000      H1005   1.084       .  S
C1001      C1002   1.412       .  A
C1001      N1006   1.438       .  S
C1002      C1003   1.407       .  A
C1003      C1004   1.406       .  A
C1003      H1007   1.084       .  S
C1004      N1008   1.437       .  S
N1006      H1009   1.046       .  S
N1006      H1010   1.046       .  S
N1008      H1011   1.046       .  S
N1008      H1012   1.046       .  S
C1017      C1018   1.413   1_545  A
C1017      C1022   1.404       .  A
C1018      C1019   1.406       .  A
C1018      N1023   1.438       .  S
C1019      C1020   1.404       .  A
C1019      H1024   1.084       .  S
C1020      C1025   1.489       .  S
C1020      C1021   1.419   1_565  A
C1021      C1022   1.404       .  A
C1021      N1026   1.439       .  S
C1022      H1027   1.084       .  S
N1023      H1043   1.046       .  S
N1023      H1044   1.046       .  S
C1025      C1028   1.403   1_565  A
C1025      C1032   1.409       .  A
N1026      H1041   1.046       .  S
N1026      H1042   1.042       .  S
C1028      C1029   1.410   1_545  A
C1028      H1033   1.084       .  S
C1029      C1030   1.420   1_455  A
C1029      N1034   1.438   1_465  S
C1030      C1031   1.407   1_655  A
C1031      C1032   1.405       .  A
C1031      H1035   1.083       .  S
C1032      N1036   1.438       .  S
N1034      H1037   1.046       .  S
N1034      H1038   1.046   1_545  S
N1036      H1039   1.046       .  S
N1036      H1040   1.045       .  S
C1045      C1046   1.413       .  A
C1045      C1050   1.403       .  A
C1046      C1047   1.408       .  A
C1046      N1051   1.438       .  S
C1047      C1048   1.401       .  A
C1047      H1052   1.084       .  S
C1048      C1053   1.481       .  S
C1048      C1049   1.410       .  A
C1049      C1050   1.406       .  A
C1049      N1054   1.438       .  S
C1050      H1055   1.084       .  S
N1051      H1071   1.046       .  S
N1051      H1072   1.046       .  S
C1053      C1056   1.403       .  A
C1053      C1060   1.408       .  A
N1054      H1069   1.046       .  S
N1054      H1070   1.045       .  S
C1056      C1057   1.411       .  A
C1056      H1061   1.084       .  S
C1057      C1058   1.414       .  A
C1057      N1062   1.437       .  S
C1058      C1059   1.404       .  A
C1059      C1060   1.403       .  A
C1059      H1063   1.084       .  S
C1060      N1064   1.438       .  S
N1062      H1065   1.046       .  S
N1062      H1066   1.046       .  S
N1064      H1067   1.046       .  S
N1064      H1068   1.045       .  S
C1073      C1074   1.415       .  A
C1073      C1078   1.404       .  A
C1074      C1075   1.398       .  A
C1074      N1079   1.433       .  S
C1075      C1076   1.401       .  A
C1075      H1080   1.084       .  S
C1076      C1081   1.482       .  S
C1076      C1077   1.410       .  A
C1077      C1078   1.408       .  A
C1077      N1082   1.437       .  S
C1078      H1083   1.084       .  S
N1079      H1099   1.045       .  S
N1079      H1100   1.044       .  S
C1081      C1084   1.400       .  A
C1081      C1088   1.415       .  A
N1082      H1097   1.046       .  S
N1082      H1098   1.046       .  S
C1084      C1085   1.401       .  A
C1084      H1089   1.084       .  S
C1085      C1086   1.422       .  A
C1085      N1090   1.432       .  S
C1086      C1087   1.408       .  A
C1087      C1088   1.402       .  A
C1087      H1091   1.084       .  S
C1088      N1092   1.440       .  S
N1090      H1093   1.045       .  S
N1090      H1094   1.045       .  S
N1092      H1095   1.046       .  S
N1092      H1096   1.043       .  S
C1101      C1102   1.413       .  A
C1101      C1106   1.404       .  A
C1102      C1103   1.409       .  A
C1102      N1107   1.438       .  S
C1103      C1104   1.403       .  A
C1103      H1108   1.084       .  S
C1104      C1109   1.483       .  S
C1104      C1105   1.410       .  A
C1105      C1106   1.401       .  A
C1105      N1110   1.438   1_565  S
C1106      H1111   1.084       .  S
N1107      H1127   1.046       .  S
N1107      H1128   1.046       .  S
C1109      C1112   1.399   1_565  A
C1109      C1116   1.410   1_565  A
N1110      H1125   1.046       .  S
N1110      H1126   1.045       .  S
C1112      C1113   1.401       .  A
C1112      H1117   1.084       .  S
C1113      C1114   1.417       .  A
C1113      N1118   1.439       .  S
C1114      C1115   1.409       .  A
C1115      C1116   1.411       .  A
C1115      H1119   1.083       .  S
C1116      N1120   1.438   1_545  S
N1118      H1121   1.046       .  S
N1118      H1122   1.046       .  S
N1120      H1123   1.046   1_565  S
N1120      H1124   1.046       .  S
C1129      C1130   1.416       .  A
C1129      C1134   1.406       .  A
C1130      C1131   1.407       .  A
C1130      N1135   1.438       .  S
C1131      C1132   1.400       .  A
C1131      H1136   1.084       .  S
C1132      C1137   1.481       .  S
C1132      C1133   1.410       .  A
C1133      C1134   1.405       .  A
C1133      N1138   1.438       .  S
C1134      H1139   1.084       .  S
N1135      H1155   1.045       .  S
N1135      H1156   1.046       .  S
C1137      C1140   1.404       .  A
C1137      C1144   1.414       .  A
N1138      H1153   1.046       .  S
N1138      H1154   1.045       .  S
C1140      C1141   1.410       .  A
C1140      H1145   1.084       .  S
C1141      C1142   1.412       .  A
C1141      N1146   1.437       .  S
C1142      C1143   1.407       .  A
C1143      C1144   1.399       .  A
C1143      H1147   1.084       .  S
C1144      N1148   1.439       .  S
N1146      H1149   1.046       .  S
N1146      H1150   1.045       .  S
N1148      H1151   1.046       .  S
N1148      H1152   1.043       .  S
C1157      C1158   1.409       .  A
C1157      C1162   1.404       .  A
C1158      C1159   1.396       .  A
C1158      N1163   1.433       .  S
C1159      C1160   1.398       .  A
C1159      H1164   1.084       .  S
C1160      C1165   1.472       .  S
C1160      C1161   1.409       .  A
C1161      C1162   1.407       .  A
C1161      N1166   1.437       .  S
C1162      H1167   1.084       .  S
N1163      H1183   1.046       .  S
N1163      H1184   1.046       .  S
C1165      C1168   1.399       .  A
C1165      C1172   1.407       .  A
N1166      H1181   1.046       .  S
N1166      H1182   1.046       .  S
C1168      C1169   1.404       .  A
C1168      H1173   1.084       .  S
C1169      C1170   1.416       .  A
C1169      N1174   1.438       .  S
C1170      C1171   1.406       .  A
C1171      C1172   1.400       .  A
C1171      H1175   1.084       .  S
C1172      N1176   1.438       .  S
N1174      H1177   1.046       .  S
N1174      H1178   1.046       .  S
N1176      H1179   1.046       .  S
N1176      H1180   1.046       .  S
C1185      C1186   1.417       .  A
C1185      C1190   1.407       .  A
C1186      C1187   1.409       .  A
C1186      N1191   1.437       .  S
C1187      C1188   1.401       .  A
C1187      H1192   1.084       .  S
C1188      C1193   1.486       .  S
C1188      C1189   1.409       .  A
C1189      C1190   1.406       .  A
C1189      N1194   1.438       .  S
C1190      H1195   1.083       .  S
N1191      H1211   1.045       .  S
N1191      H1212   1.046       .  S
C1193      C1196   1.401       .  A
C1193      C1200   1.420       .  A
N1194      H1209   1.046       .  S
N1194      H1210   1.046       .  S
C1196      C1197   1.400       .  A
C1196      H1201   1.084       .  S
C1197      C1198   1.411       .  A
C1197      N1202   1.433       .  S
C1198      C1199   1.405       .  A
C1199      C1200   1.408       .  A
C1199      H1203   1.084       .  S
C1200      N1204   1.438       .  S
N1202      H1205   1.046       .  S
N1202      H1206   1.046       .  S
N1204      H1207   1.046       .  S
N1204      H1208   1.043       .  S
C1213      C1214   1.416   1_545  A
C1213      C1218   1.406       .  A
C1214      C1215   1.404       .  A
C1214      N1219   1.438       .  S
C1215      C1216   1.398   1_565  A
C1215      H1220   1.084       .  S
C1216      C1221   1.485       .  S
C1216      C1217   1.411       .  A
C1217      C1218   1.413       .  A
C1217      N1222   1.437       .  S
C1218      H1223   1.083       .  S
N1219      H1239   1.046       .  S
N1219      H1240   1.046       .  S
C1221      C1224   1.404   1_545  A
C1221      C1228   1.409       .  A
N1222      H1237   1.046       .  S
N1222      H1238   1.045       .  S
C1224      C1225   1.410       .  A
C1224      H1229   1.084       .  S
C1225      C1226   1.414       .  A
C1225      N1230   1.438       .  S
C1226      C1227   1.403       .  A
C1227      C1228   1.408   1_565  A
C1227      H1231   1.081   1_565  S
C1228      N1232   1.437       .  S
N1230      H1233   1.046       .  S
N1230      H1234   1.046       .  S
N1232      H1235   1.046       .  S
N1232      H1236   1.045       .  S
C1241      C1242   1.420       .  A
C1241      C1246   1.409       .  A
C1242      C1243   1.410       .  A
C1242      N1247   1.437   1_565  S
C1243      C1244   1.401       .  A
C1243      H1248   1.084       .  S
C1244      C1249   1.478       .  S
C1244      C1245   1.405       .  A
C1245      C1246   1.400       .  A
C1245      N1250   1.438       .  S
C1246      H1251   1.083       .  S
N1247      H1267   1.045       .  S
N1247      H1268   1.046       .  S
C1249      C1252   1.401       .  A
C1249      C1256   1.409       .  A
N1250      H1265   1.046       .  S
N1250      H1266   1.046       .  S
C1252      C1253   1.397       .  A
C1252      H1257   1.084       .  S
C1253      C1254   1.413       .  A
C1253      N1258   1.434       .  S
C1254      C1255   1.405       .  A
C1255      C1256   1.409       .  A
C1255      H1259   1.084       .  S
C1256      N1260   1.438       .  S
N1258      H1261   1.044       .  S
N1258      H1262   1.046       .  S
N1260      H1263   1.045       .  S
N1260      H1264   1.046       .  S
C1269      C1270   1.416       .  A
C1269      C1274   1.408       .  A
C1270      C1271   1.407       .  A
C1270      N1275   1.437       .  S
C1271      C1272   1.400       .  A
C1271      H1276   1.084       .  S
C1272      C1277   1.482       .  S
C1272      C1273   1.409       .  A
C1273      C1274   1.406       .  A
C1273      N1278   1.438       .  S
C1274      H1279   1.084       .  S
N1275      H1295   1.045       .  S
N1275      H1296   1.045       .  S
C1277      C1280   1.400       .  A
C1277      C1284   1.410       .  A
N1278      H1293   1.046       .  S
N1278      H1294   1.046       .  S
C1280      C1281   1.401       .  A
C1280      H1285   1.084       .  S
C1281      C1282   1.411       .  A
C1281      N1286   1.431       .  S
C1282      C1283   1.407       .  A
C1283      C1284   1.409       .  A
C1283      H1287   1.084       .  S
C1284      N1288   1.437       .  S
N1286      H1289   1.046       .  S
N1286      H1290   1.045       .  S
N1288      H1291   1.046       .  S
N1288      H1292   1.046       .  S
C1297      C1298   1.415       .  A
C1297      C1302   1.407       .  A
C1298      C1299   1.401       .  A
C1298      N1303   1.438       .  S
C1299      C1300   1.398       .  A
C1299      H1304   1.084       .  S
C1300      C1305   1.471       .  S
C1300      C1301   1.407       .  A
C1301      C1302   1.406       .  A
C1301      N1306   1.438       .  S
C1302      H1307   1.083       .  S
N1303      H1323   1.046       .  S
N1303      H1324   1.046       .  S
C1305      C1308   1.401       .  A
C1305      C1312   1.408       .  A
N1306      H1321   1.046       .  S
N1306      H1322   1.045       .  S
C1308      C1309   1.402   1_655  A
C1308      H1313   1.084       .  S
C1309      C1310   1.409       .  A
C1309      N1314   1.438       .  S
C1310      C1311   1.403       .  A
C1311      C1312   1.403   1_455  A
C1311      H1315   1.084       .  S
C1312      N1316   1.438       .  S
N1314      H1317   1.046       .  S
N1314      H1318   1.046       .  S
N1316      H1319   1.046       .  S
N1316      H1320   1.045       .  S
C1325      C1326   1.415       .  A
C1325      C1330   1.405       .  A
C1326      C1327   1.404       .  A
C1326      N1331   1.438       .  S
C1327      C1328   1.399       .  A
C1327      H1332   1.084       .  S
C1328      C1333   1.472       .  S
C1328      C1329   1.407       .  A
C1329      C1330   1.402       .  A
C1329      N1334   1.438       .  S
C1330      H1335   1.081       .  S
N1331      H1351   1.046       .  S
N1331      H1352   1.046       .  S
C1333      C1336   1.400       .  A
C1333      C1340   1.408       .  A
N1334      H1349   1.046       .  S
N1334      H1350   1.045       .  S
C1336      C1337   1.405       .  A
C1336      H1341   1.084       .  S
C1337      C1338   1.411       .  A
C1337      N1342   1.437       .  S
C1338      C1339   1.403       .  A
C1339      C1340   1.404       .  A
C1339      H1343   1.084       .  S
C1340      N1344   1.438       .  S
N1342      H1345   1.046       .  S
N1342      H1346   1.045       .  S
N1344      H1347   1.046       .  S
N1344      H1348   1.045       .  S
C1353      C1354   1.418       .  A
C1353      C1358   1.409       .  A
C1354      C1355   1.403       .  A
C1354      N1359   1.438       .  S
C1355      C1356   1.399       .  A
C1355      H1360   1.084       .  S
C1356      C1361   1.488       .  S
C1356      C1357   1.411       .  A
C1357      C1358   1.413       .  A
C1357      N1362   1.437       .  S
C1358      H1363   1.083       .  S
N1359      H1379   1.045       .  S
N1359      H1380   1.046       .  S
C1361      C1364   1.403       .  A
C1361      C1368   1.410       .  A
N1362      H1377   1.046       .  S
N1362      H1378   1.046       .  S
C1364      C1365   1.412       .  A
C1364      H1369   1.084       .  S
C1365      C1366   1.417       .  A
C1365      N1370   1.438       .  S
C1366      C1367   1.403       .  A
C1367      C1368   1.403       .  A
C1367      H1371   1.082       .  S
C1368      N1372   1.438       .  S
N1370      H1373   1.046       .  S
N1370      H1374   1.046       .  S
N1372      H1375   1.046       .  S
N1372      H1376   1.046       .  S
C1381      C1382   1.414       .  A
C1381      C1386   1.404       .  A
C1382      C1383   1.409       .  A
C1382      N1387   1.438       .  S
C1383      C1384   1.403       .  A
C1383      H1388   1.084       .  S
C1384      C1389   1.494   1_455  S
C1384      C1385   1.420   1_455  A
C1385      C1386   1.409   1_655  A
C1385      N1390   1.438       .  S
C1386      H1391   1.084   1_455  S
N1387      H1407   1.046       .  S
N1387      H1408   1.046       .  S
C1389      C1392   1.403       .  A
C1389      C1396   1.410       .  A
N1390      H1405   1.046       .  S
N1390      H1406   1.043       .  S
C1392      C1393   1.412       .  A
C1392      H1397   1.083       .  S
C1393      C1394   1.417       .  A
C1393      N1398   1.438       .  S
C1394      C1395   1.407       .  A
C1395      C1396   1.409       .  A
C1395      H1399   1.084       .  S
C1396      N1400   1.437   1_655  S
N1398      H1401   1.046       .  S
N1398      H1402   1.046       .  S
N1400      H1403   1.046       .  S
N1400      H1404   1.046       .  S
C1409      C1410   1.417       .  A
C1409      C1414   1.406       .  A
C1410      C1411   1.408       .  A
C1410      N1415   1.438       .  S
C1411      C1412   1.401       .  A
C1411      H1416   1.084       .  S
C1412      C1417   1.482       .  S
C1412      C1413   1.409       .  A
C1413      C1414   1.402       .  A
C1413      N1418   1.438       .  S
C1414      H1419   1.083       .  S
N1415      H1435   1.046       .  S
N1415      H1436   1.046       .  S
C1417      C1420   1.400       .  A
C1417      C1424   1.411       .  A
N1418      H1433   1.046       .  S
N1418      H1434   1.046       .  S
C1420      C1421   1.401       .  A
C1420      H1425   1.084       .  S
C1421      C1422   1.413       .  A
C1421      N1426   1.438       .  S
C1422      C1423   1.405       .  A
C1423      C1424   1.409       .  A
C1423      H1427   1.084       .  S
C1424      N1428   1.437       .  S
N1426      H1429   1.046       .  S
N1426      H1430   1.046       .  S
N1428      H1431   1.046       .  S
N1428      H1432   1.046       .  S
C1437      C1438   1.416       .  A
C1437      C1442   1.407       .  A
C1438      C1439   1.399       .  A
C1438      N1443   1.432       .  S
C1439      C1440   1.401       .  A
C1439      H1444   1.084       .  S
C1440      C1445   1.472       .  S
C1440      C1441   1.413       .  A
C1441      C1442   1.397       .  A
C1441      N1446   1.440       .  S
C1442      H1447   1.084       .  S
N1443      H1463   1.046       .  S
N1443      H1464   1.045       .  S
C1445      C1448   1.401       .  A
C1445      C1452   1.407       .  A
N1446      H1461   1.045       .  S
N1446      H1462   1.043       .  S
C1448      C1449   1.405       .  A
C1448      H1453   1.084       .  S
C1449      C1450   1.412       .  A
C1449      N1454   1.437       .  S
C1450      C1451   1.402       .  A
C1451      C1452   1.401       .  A
C1451      H1455   1.084       .  S
C1452      N1456   1.437       .  S
N1454      H1457   1.046   1_565  S
N1454      H1458   1.046   1_565  S
N1456      H1459   1.046       .  S
N1456      H1460   1.045       .  S
C1465      C1466   1.423       .  A
C1465      C1470   1.403       .  A
C1466      C1467   1.401       .  A
C1466      N1471   1.441       .  S
C1467      C1468   1.398       .  A
C1467      H1472   1.084       .  S
C1468      C1473   1.476       .  S
C1468      C1469   1.409       .  A
C1469      C1470   1.401       .  A
C1469      N1474   1.438       .  S
C1470      H1475   1.084       .  S
N1471      H1491   1.041       .  S
N1471      H1492   1.046       .  S
C1473      C1476   1.397       .  A
C1473      C1480   1.410       .  A
N1474      H1489   1.046       .  S
N1474      H1490   1.045       .  S
C1476      C1477   1.395       .  A
C1476      H1481   1.084       .  S
C1477      C1478   1.414       .  A
C1477      N1482   1.433       .  S
C1478      C1479   1.408       .  A
C1479      C1480   1.410       .  A
C1479      H1483   1.083       .  S
C1480      N1484   1.437       .  S
N1482      H1485   1.046       .  S
N1482      H1486   1.045       .  S
N1484      H1487   1.046       .  S
N1484      H1488   1.045       .  S
C1493      C1494   1.414       .  A
C1493      C1498   1.403       .  A
C1494      C1495   1.409       .  A
C1494      N1499   1.438       .  S
C1495      C1496   1.401       .  A
C1495      H1500   1.084       .  S
C1496      C1501   1.482       .  S
C1496      C1497   1.410       .  A
C1497      C1498   1.406       .  A
C1497      N1502   1.438       .  S
C1498      H1503   1.084       .  S
N1499      H1519   1.046       .  S
N1499      H1520   1.046       .  S
C1501      C1504   1.401       .  A
C1501      C1508   1.408   1_545  A
N1502      H1517   1.046       .  S
N1502      H1518   1.045       .  S
C1504      C1505   1.408       .  A
C1504      H1509   1.084       .  S
C1505      C1506   1.415   1_545  A
C1505      N1510   1.438       .  S
C1506      C1507   1.407       .  A
C1507      C1508   1.407       .  A
C1507      H1511   1.084       .  S
C1508      N1512   1.438       .  S
N1510      H1513   1.045       .  S
N1510      H1514   1.045   1_545  S
N1512      H1515   1.046       .  S
N1512      H1516   1.045   1_565  S
C1521      C1522   1.411       .  A
C1521      C1526   1.407       .  A
C1522      C1523   1.402       .  A
C1522      N1527   1.433   1_565  S
C1523      C1524   1.401       .  A
C1523      H1528   1.084       .  S
C1524      C1529   1.479       .  S
C1524      C1525   1.408       .  A
C1525      C1526   1.408       .  A
C1525      N1530   1.438       .  S
C1526      H1531   1.084       .  S
N1527      H1547   1.046       .  S
N1527      H1548   1.046       .  S
C1529      C1532   1.402       .  A
C1529      C1536   1.406       .  A
N1530      H1545   1.046       .  S
N1530      H1546   1.046       .  S
C1532      C1533   1.410       .  A
C1532      H1537   1.084       .  S
C1533      C1534   1.417       .  A
C1533      N1538   1.438       .  S
C1534      C1535   1.405       .  A
C1535      C1536   1.402       .  A
C1535      H1539   1.084   1_554  S
C1536      N1540   1.438   1_554  S
N1538      H1541   1.046       .  S
N1538      H1542   1.046       .  S
N1540      H1543   1.046       .  S
N1540      H1544   1.046       .  S
C1549      C1550   1.412       .  A
C1549      C1554   1.404       .  A
C1550      C1551   1.408       .  A
C1550      N1555   1.438       .  S
C1551      C1552   1.403       .  A
C1551      H1556   1.084       .  S
C1552      C1557   1.484       .  S
C1552      C1553   1.409       .  A
C1553      C1554   1.407       .  A
C1553      N1558   1.437       .  S
C1554      H1559   1.084       .  S
N1555      H1575   1.046       .  S
N1555      H1576   1.046       .  S
C1557      C1560   1.401       .  A
C1557      C1564   1.410       .  A
N1558      H1573   1.046       .  S
N1558      H1574   1.045       .  S
C1560      C1561   1.407       .  A
C1560      H1565   1.084       .  S
C1561      C1562   1.413       .  A
C1561      N1566   1.438       .  S
C1562      C1563   1.404       .  A
C1563      C1564   1.411       .  A
C1563      H1567   1.084       .  S
C1564      N1568   1.437       .  S
N1566      H1569   1.046       .  S
N1566      H1570   1.046       .  S
N1568      H1571   1.045       .  S
N1568      H1572   1.046       .  S
C1577      C1578   1.418       .  A
C1577      C1582   1.407       .  A
C1578      C1579   1.407       .  A
C1578      N1583   1.438       .  S
C1579      C1580   1.400       .  A
C1579      H1584   1.084       .  S
C1580      C1585   1.475       .  S
C1580      C1581   1.405       .  A
C1581      C1582   1.399       .  A
C1581      N1586   1.438       .  S
C1582      H1587   1.083       .  S
N1583      H1603   1.046       .  S
N1583      H1604   1.046       .  S
C1585      C1588   1.399       .  A
C1585      C1592   1.408       .  A
N1586      H1601   1.046       .  S
N1586      H1602   1.046       .  S
C1588      C1589   1.393       .  A
C1588      H1593   1.084       .  S
C1589      C1590   1.415       .  A
C1589      N1594   1.431       .  S
C1590      C1591   1.405       .  A
C1591      C1592   1.407       .  A
C1591      H1595   1.084       .  S
C1592      N1596   1.437       .  S
N1594      H1597   1.044       .  S
N1594      H1598   1.045       .  S
N1596      H1599   1.046       .  S
N1596      H1600   1.046       .  S
C1605      C1606   1.415       .  A
C1605      C1610   1.405       .  A
C1606      C1607   1.399       .  A
C1606      N1611   1.439       .  S
C1607      C1608   1.400       .  A
C1607      H1612   1.084       .  S
C1608      C1613   1.475       .  S
C1608      C1609   1.408       .  A
C1609      C1610   1.404       .  A
C1609      N1614   1.437       .  S
C1610      H1615   1.083       .  S
N1611      H1631   1.046       .  S
N1611      H1632   1.046       .  S
C1613      C1616   1.401       .  A
C1613      C1620   1.407       .  A
N1614      H1629   1.046       .  S
N1614      H1630   1.045       .  S
C1616      C1617   1.405       .  A
C1616      H1621   1.084       .  S
C1617      C1618   1.415       .  A
C1617      N1622   1.438       .  S
C1618      C1619   1.405       .  A
C1619      C1620   1.398       .  A
C1619      H1623   1.083       .  S
C1620      N1624   1.439       .  S
N1622      H1625   1.046       .  S
N1622      H1626   1.046       .  S
N1624      H1627   1.046       .  S
N1624      H1628   1.046       .  S
C1633      C1634   1.419       .  A
C1633      C1638   1.406       .  A
C1634      C1635   1.405       .  A
C1634      N1639   1.439       .  S
C1635      C1636   1.398       .  A
C1635      H1640   1.084       .  S
C1636      C1641   1.484       .  S
C1636      C1637   1.410       .  A
C1637      C1638   1.413       .  A
C1637      N1642   1.437       .  S
C1638      H1643   1.083       .  S
N1639      H1659   1.046       .  S
N1639      H1660   1.046       .  S
C1641      C1644   1.405       .  A
C1641      C1648   1.409       .  A
N1642      H1657   1.045       .  S
N1642      H1658   1.045       .  S
C1644      C1645   1.410       .  A
C1644      H1649   1.084       .  S
C1645      C1646   1.412       .  A
C1645      N1650   1.438       .  S
C1646      C1647   1.402       .  A
C1647      C1648   1.406       .  A
C1647      H1651   1.083       .  S
C1648      N1652   1.437       .  S
N1650      H1653   1.046       .  S
N1650      H1654   1.046       .  S
N1652      H1655   1.046       .  S
N1652      H1656   1.045       .  S
C1661      C1662   1.413       .  A
C1661      C1666   1.402       .  A
C1662      C1663   1.408       .  A
C1662      N1667   1.438       .  S
C1663      C1664   1.405       .  A
C1663      H1668   1.084       .  S
C1664      C1669   1.485       .  S
C1664      C1665   1.411       .  A
C1665      C1666   1.400       .  A
C1665      N1670   1.438       .  S
C1666      H1671   1.084       .  S
N1667      H1687   1.046       .  S
N1667      H1688   1.046       .  S
C1669      C1672   1.399       .  A
C1669      C1676   1.419       .  A
N1670      H1685   1.046       .  S
N1670      H1686   1.045       .  S
C1672      C1673   1.400       .  A
C1672      H1677   1.084       .  S
C1673      C1674   1.419       .  A
C1673      N1678   1.439       .  S
C1674      C1675   1.406       .  A
C1675      C1676   1.408       .  A
C1675      H1679   1.084       .  S
C1676      N1680   1.439       .  S
N1678      H1681   1.046       .  S
N1678      H1682   1.045       .  S
N1680      H1683   1.046       .  S
N1680      H1684   1.042       .  S
C1689      C1690   1.416       .  A
C1689      C1694   1.406       .  A
C1690      C1691   1.407       .  A
C1690      N1695   1.438       .  S
C1691      C1692   1.402       .  A
C1691      H1696   1.084       .  S
C1692      C1697   1.478       .  S
C1692      C1693   1.407       .  A
C1693      C1694   1.398       .  A
C1693      N1698   1.439       .  S
C1694      H1699   1.083       .  S
N1695      H1715   1.045       .  S
N1695      H1716   1.046       .  S
C1697      C1700   1.401       .  A
C1697      C1704   1.410       .  A
N1698      H1713   1.046       .  S
N1698      H1714   1.045       .  S
C1700      C1701   1.397   1_655  A
C1700      H1705   1.084       .  S
C1701      C1702   1.409       .  A
C1701      N1706   1.432       .  S
C1702      C1703   1.405       .  A
C1703      C1704   1.407   1_455  A
C1703      H1707   1.084       .  S
C1704      N1708   1.437       .  S
N1706      H1709   1.046       .  S
N1706      H1710   1.046       .  S
N1708      H1711   1.046       .  S
N1708      H1712   1.046       .  S
C1717      C1718   1.416       .  A
C1717      C1722   1.408       .  A
C1718      C1719   1.407       .  A
C1718      N1723   1.438       .  S
C1719      C1720   1.401       .  A
C1719      H1724   1.084       .  S
C1720      C1725   1.480       .  S
C1720      C1721   1.407       .  A
C1721      C1722   1.402       .  A
C1721      N1726   1.438       .  S
C1722      H1727   1.084       .  S
N1723      H1743   1.046       .  S
N1723      H1744   1.045       .  S
C1725      C1728   1.403       .  A
C1725      C1732   1.407       .  A
N1726      H1741   1.046       .  S
N1726      H1742   1.046       .  S
C1728      C1729   1.405       .  A
C1728      H1733   1.084       .  S
C1729      C1730   1.414       .  A
C1729      N1734   1.438       .  S
C1730      C1731   1.406       .  A
C1731      C1732   1.404       .  A
C1731      H1735   1.084       .  S
C1732      N1736   1.438       .  S
N1734      H1737   1.046       .  S
N1734      H1738   1.046       .  S
N1736      H1739   1.046       .  S
N1736      H1740   1.046       .  S
C1745      C1746   1.411       .  A
C1745      C1750   1.404       .  A
C1746      C1747   1.402       .  A
C1746      N1751   1.438       .  S
C1747      C1748   1.399       .  A
C1747      H1752   1.084       .  S
C1748      C1753   1.474       .  S
C1748      C1749   1.408       .  A
C1749      C1750   1.407       .  A
C1749      N1754   1.437       .  S
C1750      H1755   1.084       .  S
N1751      H1771   1.046       .  S
N1751      H1772   1.046       .  S
C1753      C1756   1.400       .  A
C1753      C1760   1.405       .  A
N1754      H1769   1.046       .  S
N1754      H1770   1.045       .  S
C1756      C1757   1.405       .  A
C1756      H1761   1.084       .  S
C1757      C1758   1.415       .  A
C1757      N1762   1.438       .  S
C1758      C1759   1.406       .  A
C1759      C1760   1.403       .  A
C1759      H1763   1.081       .  S
C1760      N1764   1.438       .  S
N1762      H1765   1.046       .  S
N1762      H1766   1.046       .  S
N1764      H1767   1.046       .  S
N1764      H1768   1.045       .  S
C1773      C1774   1.413       .  A
C1773      C1778   1.404       .  A
C1774      C1775   1.404       .  A
C1774      N1779   1.438       .  S
C1775      C1776   1.400       .  A
C1775      H1780   1.084       .  S
C1776      C1781   1.476       .  S
C1776      C1777   1.408       .  A
C1777      C1778   1.405       .  A
C1777      N1782   1.438       .  S
C1778      H1783   1.084       .  S
N1779      H1799   1.046       .  S
N1779      H1800   1.046       .  S
C1781      C1784   1.401   1_565  A
C1781      C1788   1.408   1_565  A
N1782      H1797   1.046       .  S
N1782      H1798   1.044       .  S
C1784      C1785   1.404       .  A
C1784      H1789   1.084   1_545  S
C1785      C1786   1.413       .  A
C1785      N1790   1.439       .  S
C1786      C1787   1.404       .  A
C1787      C1788   1.406       .  A
C1787      H1791   1.084       .  S
C1788      N1792   1.438       .  S
N1790      H1793   1.046       .  S
N1790      H1794   1.046       .  S
N1792      H1795   1.046       .  S
N1792      H1796   1.044   1_545  S
C1801      C1802   1.415   1_455  A
C1801      C1806   1.406       .  A
C1802      C1803   1.412       .  A
C1802      N1807   1.437       .  S
C1803      C1804   1.405       .  A
C1803      H1808   1.084       .  S
C1804      C1809   1.482       .  S
C1804      C1805   1.414   1_655  A
C1805      C1806   1.395       .  A
C1805      N1810   1.440       .  S
C1806      H1811   1.084       .  S
N1807      H1827   1.045       .  S
N1807      H1828   1.046       .  S
C1809      C1812   1.401       .  A
C1809      C1816   1.412       .  A
N1810      H1825   1.046       .  S
N1810      H1826   1.043       .  S
C1812      C1813   1.406       .  A
C1812      H1817   1.084       .  S
C1813      C1814   1.412       .  A
C1813      N1818   1.438       .  S
C1814      C1815   1.404       .  A
C1815      C1816   1.406       .  A
C1815      H1819   1.084       .  S
C1816      N1820   1.439       .  S
N1818      H1821   1.046       .  S
N1818      H1822   1.046       .  S
N1820      H1823   1.046       .  S
N1820      H1824   1.044   1_655  S
C1829      C1830   1.418       .  A
C1829      C1834   1.404       .  A
C1830      C1831   1.402       .  A
C1830      N1835   1.440       .  S
C1831      C1832   1.399       .  A
C1831      H1836   1.084       .  S
C1832      C1837   1.481       .  S
C1832      C1833   1.410       .  A
C1833      C1834   1.408       .  A
C1833      N1838   1.437       .  S
C1834      H1839   1.082       .  S
N1835      H1855   1.046       .  S
N1835      H1856   1.046       .  S
C1837      C1840   1.400       .  A
C1837      C1844   1.409       .  A
N1838      H1853   1.046       .  S
N1838      H1854   1.046       .  S
C1840      C1841   1.405       .  A
C1840      H1845   1.084       .  S
C1841      C1842   1.417       .  A
C1841      N1846   1.438       .  S
C1842      C1843   1.408       .  A
C1843      C1844   1.406       .  A
C1843      H1847   1.084       .  S
C1844      N1848   1.438       .  S
N1846      H1849   1.046       .  S
N1846      H1850   1.046       .  S
N1848      H1851   1.046       .  S
N1848      H1852   1.046       .  S
C1857      C1858   1.417       .  A
C1857      C1862   1.406       .  A
C1858      C1859   1.412       .  A
C1858      N1863   1.436       .  S
C1859      C1860   1.402       .  A
C1859      H1864   1.084       .  S
C1860      C1865   1.485       .  S
C1860      C1861   1.408       .  A
C1861      C1862   1.406       .  A
C1861      N1866   1.438       .  S
C1862      H1867   1.081       .  S
N1863      H1883   1.046       .  S
N1863      H1884   1.046       .  S
C1865      C1868   1.403       .  A
C1865      C1872   1.410       .  A
N1866      H1881   1.046       .  S
N1866      H1882   1.045       .  S
C1868      C1869   1.410       .  A
C1868      H1873   1.084       .  S
C1869      C1870   1.413       .  A
C1869      N1874   1.438       .  S
C1870      C1871   1.402       .  A
C1871      C1872   1.406       .  A
C1871      H1875   1.084       .  S
C1872      N1876   1.437       .  S
N1874      H1877   1.046       .  S
N1874      H1878   1.046       .  S
N1876      H1879   1.046       .  S
N1876      H1880   1.045       .  S
C1885      C1886   1.415       .  A
C1885      C1890   1.408       .  A
C1886      C1887   1.410       .  A
C1886      N1891   1.437       .  S
C1887      C1888   1.404       .  A
C1887      H1892   1.084       .  S
C1888      C1893   1.481       .  S
C1888      C1889   1.413       .  A
C1889      C1890   1.397       .  A
C1889      N1894   1.440       .  S
C1890      H1895   1.084       .  S
N1891      H1911   1.046       .  S
N1891      H1912   1.046       .  S
C1893      C1896   1.403       .  A
C1893      C1900   1.407       .  A
N1894      H1909   1.046       .  S
N1894      H1910   1.043       .  S
C1896      C1897   1.404       .  A
C1896      H1901   1.084       .  S
C1897      C1898   1.412       .  A
C1897      N1902   1.438       .  S
C1898      C1899   1.407       .  A
C1899      C1900   1.406       .  A
C1899      H1903   1.084       .  S
C1900      N1904   1.437       .  S
N1902      H1905   1.046       .  S
N1902      H1906   1.046       .  S
N1904      H1907   1.046       .  S
N1904      H1908   1.046       .  S
C1913      C1914   1.415       .  A
C1913      C1918   1.405       .  A
C1914      C1915   1.398       .  A
C1914      N1919   1.433       .  S
C1915      C1916   1.401       .  A
C1915      H1920   1.084       .  S
C1916      C1921   1.488       .  S
C1916      C1917   1.413       .  A
C1917      C1918   1.410       .  A
C1917      N1922   1.437       .  S
C1918      H1923   1.083       .  S
N1919      H1939   1.046       .  S
N1919      H1940   1.046       .  S
C1921      C1924   1.404       .  A
C1921      C1928   1.412       .  A
N1922      H1937   1.046       .  S
N1922      H1938   1.045       .  S
C1924      C1925   1.409       .  A
C1924      H1929   1.083       .  S
C1925      C1926   1.415       .  A
C1925      N1930   1.438       .  S
C1926      C1927   1.404       .  A
C1927      C1928   1.401       .  A
C1927      H1931   1.084       .  S
C1928      N1932   1.438       .  S
N1930      H1933   1.046       .  S
N1930      H1934   1.045       .  S
N1932      H1935   1.046       .  S
N1932      H1936   1.045       .  S
C1941      C1942   1.415   1_565  A
C1941      C1946   1.410       .  A
C1942      C1943   1.400       .  A
C1942      N1947   1.432   1_455  S
C1943      C1944   1.401       .  A
C1943      H1948   1.084       .  S
C1944      C1949   1.490       .  S
C1944      C1945   1.411   1_545  A
C1945      C1946   1.412       .  A
C1945      N1950   1.437       .  S
C1946      H1951   1.083       .  S
N1947      H1967   1.046       .  S
N1947      H1968   1.045       .  S
C1949      C1952   1.406       .  A
C1949      C1956   1.410       .  A
N1950      H1965   1.046       .  S
N1950      H1966   1.046       .  S
C1952      C1953   1.412       .  A
C1952      H1957   1.083   1_545  S
C1953      C1954   1.414       .  A
C1953      N1958   1.437   1_545  S
C1954      C1955   1.404       .  A
C1955      C1956   1.402       .  A
C1955      H1959   1.084       .  S
C1956      N1960   1.438       .  S
N1958      H1961   1.046       .  S
N1958      H1962   1.045       .  S
N1960      H1963   1.046       .  S
N1960      H1964   1.046       .  S
C1969      C1970   1.418       .  A
C1969      C1974   1.408       .  A
C1970      C1971   1.405       .  A
C1970      N1975   1.438       .  S
C1971      C1972   1.401       .  A
C1971      H1976   1.084       .  S
C1972      C1977   1.484       .  S
C1972      C1973   1.408       .  A
C1973      C1974   1.408       .  A
C1973      N1978   1.437       .  S
C1974      H1979   1.083       .  S
N1975      H1995   1.045       .  S
N1975      H1996   1.046       .  S
C1977      C1980   1.403       .  A
C1977      C1984   1.409       .  A
N1978      H1993   1.046       .  S
N1978      H1994   1.046       .  S
C1980      C1981   1.410       .  A
C1980      H1985   1.084       .  S
C1981      C1982   1.415       .  A
C1981      N1986   1.438       .  S
C1982      C1983   1.405       .  A
C1983      C1984   1.403       .  A
C1983      H1987   1.084       .  S
C1984      N1988   1.438       .  S
N1986      H1989   1.046       .  S
N1986      H1990   1.046       .  S
N1988      H1991   1.046       .  S
N1988      H1992   1.046       .  S
C1997      C1998   1.420       .  A
C1997      C2002   1.407       .  A
C1998      C1999   1.408       .  A
C1998      N2003   1.438       .  S
C1999      C2000   1.401       .  A
C1999      H2004   1.084       .  S
C2000      C2005   1.477       .  S
C2000      C2001   1.405       .  A
C2001      C2002   1.401       .  A
C2001      N2006   1.438       .  S
C2002      H2007   1.083       .  S
N2003      H2023   1.045       .  S
N2003      H2024   1.046       .  S
C2005      C2008   1.402       .  A
C2005      C2012   1.408   1_565  A
N2006      H2021   1.045       .  S
N2006      H2022   1.046       .  S
C2008      C2009   1.400   1_565  A
C2008      H2013   1.084       .  S
C2009      C2010   1.409       .  A
C2009      N2014   1.433       .  S
C2010      C2011   1.404       .  A
C2011      C2012   1.405       .  A
C2011      H2015   1.084       .  S
C2012      N2016   1.437       .  S
N2014      H2017   1.046       .  S
N2014      H2018   1.046       .  S
N2016      H2019   1.046       .  S
N2016      H2020   1.046       .  S
C2025      C2026   1.416       .  A
C2025      C2030   1.405       .  A
C2026      C2027   1.414       .  A
C2026      N2031   1.437       .  S
C2027      C2028   1.406       .  A
C2027      H2032   1.084       .  S
C2028      C2033   1.490       .  S
C2028      C2029   1.416       .  A
C2029      C2030   1.400       .  A
C2029      N2034   1.439       .  S
C2030      H2035   1.084       .  S
N2031      H2051   1.046       .  S
N2031      H2052   1.046       .  S
C2033      C2036   1.402       .  A
C2033      C2040   1.412       .  A
N2034      H2049   1.045       .  S
N2034      H2050   1.043       .  S
C2036      C2037   1.411       .  A
C2036      H2041   1.084       .  S
C2037      C2038   1.418       .  A
C2037      N2042   1.437       .  S
C2038      C2039   1.406       .  A
C2039      C2040   1.407       .  A
C2039      H2043   1.082       .  S
C2040      N2044   1.438       .  S
N2042      H2045   1.046       .  S
N2042      H2046   1.046       .  S
N2044      H2047   1.046       .  S
N2044      H2048   1.043       .  S
C2053      C2054   1.413       .  A
C2053      C2058   1.404   1_655  A
C2054      C2055   1.404       .  A
C2054      N2059   1.437       .  S
C2055      C2056   1.399       .  A
C2055      H2060   1.084       .  S
C2056      C2061   1.479       .  S
C2056      C2057   1.409   1_655  A
C2057      C2058   1.408       .  A
C2057      N2062   1.437       .  S
C2058      H2063   1.084       .  S
N2059      H2079   1.046       .  S
N2059      H2080   1.046       .  S
C2061      C2064   1.401       .  A
C2061      C2068   1.408       .  A
N2062      H2077   1.046       .  S
N2062      H2078   1.045       .  S
C2064      C2065   1.405       .  A
C2064      H2069   1.084       .  S
C2065      C2066   1.411       .  A
C2065      N2070   1.437       .  S
C2066      C2067   1.406       .  A
C2067      C2068   1.408       .  A
C2067      H2071   1.084       .  S
C2068      N2072   1.438       .  S
N2070      H2073   1.046       .  S
N2070      H2074   1.046       .  S
N2072      H2075   1.046       .  S
N2072      H2076   1.045   1_655  S
C2081      C2082   1.411       .  A
C2081      C2086   1.406       .  A
C2082      C2083   1.398       .  A
C2082      N2087   1.432       .  S
C2083      C2084   1.401       .  A
C2083      H2088   1.084       .  S
C2084      C2089   1.480       .  S
C2084      C2085   1.410       .  A
C2085      C2086   1.407       .  A
C2085      N2090   1.438       .  S
C2086      H2091   1.084       .  S
N2087      H2107   1.046       .  S
N2087      H2108   1.046       .  S
C2089      C2092   1.401       .  A
C2089      C2096   1.408       .  A
N2090      H2105   1.046       .  S
N2090      H2106   1.045       .  S
C2092      C2093   1.407       .  A
C2092      H2097   1.084       .  S
C2093      C2094   1.418       .  A
C2093      N2098   1.438       .  S
C2094      C2095   1.405       .  A
C2095      C2096   1.399       .  A
C2095      H2099   1.084       .  S
C2096      N2100   1.439       .  S
N2098      H2101   1.046       .  S
N2098      H2102   1.046       .  S
N2100      H2103   1.046       .  S
N2100      H2104   1.046       .  S
C2109      C2110   1.413       .  A
C2109      C2114   1.406       .  A
C2110      C2111   1.400       .  A
C2110      N2115   1.439       .  S
C2111      C2112   1.401       .  A
C2111      H2116   1.084       .  S
C2112      C2117   1.484       .  S
C2112      C2113   1.411       .  A
C2113      C2114   1.409       .  A
C2113      N2118   1.437   1_554  S
C2114      H2119   1.084   1_554  S
N2115      H2135   1.046       .  S
N2115      H2136   1.046       .  S
C2117      C2120   1.401       .  A
C2117      C2124   1.409       .  A
N2118      H2133   1.046       .  S
N2118      H2134   1.045       .  S
C2120      C2121   1.409       .  A
C2120      H2125   1.084       .  S
C2121      C2122   1.419       .  A
C2121      N2126   1.438       .  S
C2122      C2123   1.406       .  A
C2123      C2124   1.402       .  A
C2123      H2127   1.083       .  S
C2124      N2128   1.438       .  S
N2126      H2129   1.046       .  S
N2126      H2130   1.046       .  S
N2128      H2131   1.045       .  S
N2128      H2132   1.046       .  S
C2137      C2138   1.420       .  A
C2137      C2142   1.406       .  A
C2138      C2139   1.413       .  A
C2138      N2143   1.438       .  S
C2139      C2140   1.403       .  A
C2139      H2144   1.084       .  S
C2140      C2145   1.489       .  S
C2140      C2141   1.409       .  A
C2141      C2142   1.403       .  A
C2141      N2146   1.438       .  S
C2142      H2147   1.083       .  S
N2143      H2163   1.046       .  S
N2143      H2164   1.046       .  S
C2145      C2148   1.402       .  A
C2145      C2152   1.411       .  A
N2146      H2161   1.045       .  S
N2146      H2162   1.046       .  S
C2148      C2149   1.405       .  A
C2148      H2153   1.084       .  S
C2149      C2150   1.413       .  A
C2149      N2154   1.438       .  S
C2150      C2151   1.406       .  A
C2151      C2152   1.411       .  A
C2151      H2155   1.084       .  S
C2152      N2156   1.437       .  S
N2154      H2157   1.046       .  S
N2154      H2158   1.046       .  S
N2156      H2159   1.046       .  S
N2156      H2160   1.046       .  S
C2165      C2166   1.413       .  A
C2165      C2170   1.406       .  A
C2166      C2167   1.404       .  A
C2166      N2171   1.439       .  S
C2167      C2168   1.401       .  A
C2167      H2172   1.084       .  S
C2168      C2173   1.483       .  S
C2168      C2169   1.417       .  A
C2169      C2170   1.406       .  A
C2169      N2174   1.438       .  S
C2170      H2175   1.084       .  S
N2171      H2191   1.046       .  S
N2171      H2192   1.046       .  S
C2173      C2176   1.402       .  A
C2173      C2180   1.408       .  A
N2174      H2189   1.046       .  S
N2174      H2190   1.043       .  S
C2176      C2177   1.411       .  A
C2176      H2181   1.084       .  S
C2177      C2178   1.416       .  A
C2177      N2182   1.438       .  S
C2178      C2179   1.406       .  A
C2179      C2180   1.404       .  A
C2179      H2183   1.084       .  S
C2180      N2184   1.438       .  S
N2182      H2185   1.046       .  S
N2182      H2186   1.045       .  S
N2184      H2187   1.045       .  S
N2184      H2188   1.046       .  S
C2193      C2194   1.411       .  A
C2193      C2198   1.403       .  A
C2194      C2195   1.402       .  A
C2194      N2199   1.437   1_554  S
C2195      C2196   1.399       .  A
C2195      H2200   1.084   1_554  S
C2196      C2201   1.473       .  S
C2196      C2197   1.408       .  A
C2197      C2198   1.405       .  A
C2197      N2202   1.438       .  S
C2198      H2203   1.083       .  S
N2199      H2219   1.046       .  S
N2199      H2220   1.046       .  S
C2201      C2204   1.400       .  A
C2201      C2208   1.407       .  A
N2202      H2217   1.046       .  S
N2202      H2218   1.044       .  S
C2204      C2205   1.403       .  A
C2204      H2209   1.084       .  S
C2205      C2206   1.413       .  A
C2205      N2210   1.438       .  S
C2206      C2207   1.405       .  A
C2207      C2208   1.405       .  A
C2207      H2211   1.084       .  S
C2208      N2212   1.438       .  S
N2210      H2213   1.046       .  S
N2210      H2214   1.046       .  S
N2212      H2215   1.045       .  S
N2212      H2216   1.044       .  S
C2221      C2222   1.416       .  A
C2221      C2226   1.407   1_655  A
C2222      C2223   1.412       .  A
C2222      N2227   1.437       .  S
C2223      C2224   1.403   1_655  A
C2223      H2228   1.084       .  S
C2224      C2229   1.480       .  S
C2224      C2225   1.405       .  A
C2225      C2226   1.401       .  A
C2225      N2230   1.438       .  S
C2226      H2231   1.083       .  S
N2227      H2247   1.046       .  S
N2227      H2248   1.046       .  S
C2229      C2232   1.402       .  A
C2229      C2236   1.408       .  A
N2230      H2245   1.046       .  S
N2230      H2246   1.046       .  S
C2232      C2233   1.404       .  A
C2232      H2237   1.084       .  S
C2233      C2234   1.413       .  A
C2233      N2238   1.439       .  S
C2234      C2235   1.404       .  A
C2235      C2236   1.408       .  A
C2235      H2239   1.080       .  S
C2236      N2240   1.437       .  S
N2238      H2241   1.046       .  S
N2238      H2242   1.046       .  S
N2240      H2243   1.046       .  S
N2240      H2244   1.046       .  S
C2249      C2250   1.415       .  A
C2249      C2254   1.405       .  A
C2250      C2251   1.404       .  A
C2250      N2255   1.439       .  S
C2251      C2252   1.403       .  A
C2251      H2256   1.084       .  S
C2252      C2257   1.484       .  S
C2252      C2253   1.409       .  A
C2253      C2254   1.406       .  A
C2253      N2258   1.438       .  S
C2254      H2259   1.082       .  S
N2255      H2275   1.046       .  S
N2255      H2276   1.046   1_655  S
C2257      C2260   1.404       .  A
C2257      C2264   1.408       .  A
N2258      H2273   1.046       .  S
N2258      H2274   1.046       .  S
C2260      C2261   1.410       .  A
C2260      H2265   1.084       .  S
C2261      C2262   1.415       .  A
C2261      N2266   1.438       .  S
C2262      C2263   1.406       .  A
C2263      C2264   1.401       .  A
C2263      H2267   1.083       .  S
C2264      N2268   1.438       .  S
N2266      H2269   1.046       .  S
N2266      H2270   1.046       .  S
N2268      H2271   1.046       .  S
N2268      H2272   1.046       .  S
C2277      C2278   1.413       .  A
C2277      C2282   1.405       .  A
C2278      C2279   1.403       .  A
C2278      N2283   1.438       .  S
C2279      C2280   1.401       .  A
C2279      H2284   1.084       .  S
C2280      C2285   1.480       .  S
C2280      C2281   1.409       .  A
C2281      C2282   1.407       .  A
C2281      N2286   1.437       .  S
C2282      H2287   1.084       .  S
N2283      H2303   1.046       .  S
N2283      H2304   1.046       .  S
C2285      C2288   1.400       .  A
C2285      C2292   1.408       .  A
N2286      H2301   1.046       .  S
N2286      H2302   1.046       .  S
C2288      C2289   1.406       .  A
C2288      H2293   1.084       .  S
C2289      C2290   1.415       .  A
C2289      N2294   1.436       .  S
C2290      C2291   1.407       .  A
C2291      C2292   1.404       .  A
C2291      H2295   1.082       .  S
C2292      N2296   1.438       .  S
N2294      H2297   1.046       .  S
N2294      H2298   1.045       .  S
N2296      H2299   1.046       .  S
N2296      H2300   1.046       .  S
C2305      C2306   1.411       .  A
C2305      C2310   1.402       .  A
C2306      C2307   1.413       .  A
C2306      N2311   1.437       .  S
C2307      C2308   1.406       .  A
C2307      H2312   1.083       .  S
C2308      C2313   1.490       .  S
C2308      C2309   1.411       .  A
C2309      C2310   1.403       .  A
C2309      N2314   1.438       .  S
C2310      H2315   1.084       .  S
N2311      H2331   1.046       .  S
N2311      H2332   1.045       .  S
C2313      C2316   1.400       .  A
C2313      C2320   1.409       .  A
N2314      H2329   1.045       .  S
N2314      H2330   1.046       .  S
C2316      C2317   1.397       .  A
C2316      H2321   1.084       .  S
C2317      C2318   1.424       .  A
C2317      N2322   1.432       .  S
C2318      C2319   1.414       .  A
C2319      C2320   1.412       .  A
C2319      H2323   1.083       .  S
C2320      N2324   1.438       .  S
N2322      H2325   1.045       .  S
N2322      H2326   1.045       .  S
N2324      H2327   1.046       .  S
N2324      H2328   1.046       .  S
C2333      C2334   1.415       .  A
C2333      C2338   1.405       .  A
C2334      C2335   1.407       .  A
C2334      N2339   1.438       .  S
C2335      C2336   1.401       .  A
C2335      H2340   1.084       .  S
C2336      C2341   1.476       .  S
C2336      C2337   1.407       .  A
C2337      C2338   1.401       .  A
C2337      N2342   1.438       .  S
C2338      H2343   1.084       .  S
N2339      H2359   1.045       .  S
N2339      H2360   1.046       .  S
C2341      C2344   1.399       .  A
C2341      C2348   1.407       .  A
N2342      H2357   1.046       .  S
N2342      H2358   1.046       .  S
C2344      C2345   1.394       .  A
C2344      H2349   1.084       .  S
C2345      C2346   1.420       .  A
C2345      N2350   1.433       .  S
C2346      C2347   1.408       .  A
C2347      C2348   1.406       .  A
C2347      H2351   1.084       .  S
C2348      N2352   1.437       .  S
N2350      H2353   1.046       .  S
N2350      H2354   1.045       .  S
N2352      H2355   1.046       .  S
N2352      H2356   1.046       .  S
C2361      C2362   1.418       .  A
C2361      C2366   1.403       .  A
C2362      C2363   1.409       .  A
C2362      N2367   1.439       .  S
C2363      C2364   1.403       .  A
C2363      H2368   1.084       .  S
C2364      C2369   1.485       .  S
C2364      C2365   1.409       .  A
C2365      C2366   1.401       .  A
C2365      N2370   1.438       .  S
C2366      H2371   1.081       .  S
N2367      H2387   1.046       .  S
N2367      H2388   1.046       .  S
C2369      C2372   1.401       .  A
C2369      C2376   1.411       .  A
N2370      H2385   1.046       .  S
N2370      H2386   1.046       .  S
C2372      C2373   1.402       .  A
C2372      H2377   1.084       .  S
C2373      C2374   1.414       .  A
C2373      N2378   1.438       .  S
C2374      C2375   1.405       .  A
C2375      C2376   1.410       .  A
C2375      H2379   1.083       .  S
C2376      N2380   1.437       .  S
N2378      H2381   1.046       .  S
N2378      H2382   1.046       .  S
N2380      H2383   1.045       .  S
N2380      H2384   1.046       .  S
C2389      C2390   1.417       .  A
C2389      C2394   1.405       .  A
C2390      C2391   1.410       .  A
C2390      N2395   1.438       .  S
C2391      C2392   1.402       .  A
C2391      H2396   1.084       .  S
C2392      C2397   1.479       .  S
C2392      C2393   1.406       .  A
C2393      C2394   1.400       .  A
C2393      N2398   1.438       .  S
C2394      H2399   1.082       .  S
N2395      H2415   1.046       .  S
N2395      H2416   1.046       .  S
C2397      C2400   1.401       .  A
C2397      C2404   1.416       .  A
N2398      H2413   1.046       .  S
N2398      H2414   1.046       .  S
C2400      C2401   1.403       .  A
C2400      H2405   1.084       .  S
C2401      C2402   1.411       .  A
C2401      N2406   1.437       .  S
C2402      C2403   1.405       .  A
C2403      C2404   1.404       .  A
C2403      H2407   1.084       .  S
C2404      N2408   1.439       .  S
N2406      H2409   1.046       .  S
N2406      H2410   1.045       .  S
N2408      H2411   1.046       .  S
N2408      H2412   1.043       .  S
C2417      C2418   1.412       .  A
C2417      C2422   1.407       .  A
C2418      C2419   1.405   1_545  A
C2418      N2423   1.438       .  S
C2419      C2420   1.402       .  A
C2419      H2424   1.084       .  S
C2420      C2425   1.481       .  S
C2420      C2421   1.410   1_565  A
C2421      C2422   1.408       .  A
C2421      N2426   1.438       .  S
C2422      H2427   1.084       .  S
N2423      H2443   1.046       .  S
N2423      H2444   1.046   1_545  S
C2425      C2428   1.400       .  A
C2425      C2432   1.409       .  A
N2426      H2441   1.046       .  S
N2426      H2442   1.043       .  S
C2428      C2429   1.405       .  A
C2428      H2433   1.084       .  S
C2429      C2430   1.415       .  A
C2429      N2434   1.438       .  S
C2430      C2431   1.407       .  A
C2431      C2432   1.409       .  A
C2431      H2435   1.084       .  S
C2432      N2436   1.438       .  S
N2434      H2437   1.046       .  S
N2434      H2438   1.045       .  S
N2436      H2439   1.046       .  S
N2436      H2440   1.043       .  S
C2445      C2446   1.412       .  A
C2445      C2450   1.405       .  A
C2446      C2447   1.403       .  A
C2446      N2451   1.438       .  S
C2447      C2448   1.402       .  A
C2447      H2452   1.084       .  S
C2448      C2453   1.480       .  S
C2448      C2449   1.409       .  A
C2449      C2450   1.407       .  A
C2449      N2454   1.437       .  S
C2450      H2455   1.084       .  S
N2451      H2471   1.046       .  S
N2451      H2472   1.046       .  S
C2453      C2456   1.401       .  A
C2453      C2460   1.408       .  A
N2454      H2469   1.045       .  S
N2454      H2470   1.046       .  S
C2456      C2457   1.408   1_655  A
C2456      H2461   1.084       .  S
C2457      C2458   1.418       .  A
C2457      N2462   1.439       .  S
C2458      C2459   1.405       .  A
C2459      C2460   1.401   1_455  A
C2459      H2463   1.083       .  S
C2460      N2464   1.438       .  S
N2462      H2465   1.046   1_455  S
N2462      H2466   1.046       .  S
N2464      H2467   1.046   1_655  S
N2464      H2468   1.046       .  S
C2473      C2474   1.416       .  A
C2473      C2478   1.406       .  A
C2474      C2475   1.411       .  A
C2474      N2479   1.437       .  S
C2475      C2476   1.405       .  A
C2475      H2480   1.083   1_545  S
C2476      C2481   1.491       .  S
C2476      C2477   1.412       .  A
C2477      C2478   1.403       .  A
C2477      N2482   1.439       .  S
C2478      H2483   1.083       .  S
N2479      H2499   1.046       .  S
N2479      H2500   1.046       .  S
C2481      C2484   1.404       .  A
C2481      C2488   1.413   1_545  A
N2482      H2497   1.046       .  S
N2482      H2498   1.046       .  S
C2484      C2485   1.402       .  A
C2484      H2489   1.084       .  S
C2485      C2486   1.414   1_545  A
C2485      N2490   1.439       .  S
C2486      C2487   1.406       .  A
C2487      C2488   1.409       .  A
C2487      H2491   1.083       .  S
C2488      N2492   1.437       .  S
N2490      H2493   1.046       .  S
N2490      H2494   1.046       .  S
N2492      H2495   1.046       .  S
N2492      H2496   1.045       .  S
C2501      C2502   1.417       .  A
C2501      C2506   1.403       .  A
C2502      C2503   1.404       .  A
C2502      N2507   1.437       .  S
C2503      C2504   1.401       .  A
C2503      H2508   1.084       .  S
C2504      C2509   1.477       .  S
C2504      C2505   1.409       .  A
C2505      C2506   1.398       .  A
C2505      N2510   1.438       .  S
C2506      H2511   1.084       .  S
N2507      H2527   1.045       .  S
N2507      H2528   1.046       .  S
C2509      C2512   1.399       .  A
C2509      C2516   1.410       .  A
N2510      H2525   1.046       .  S
N2510      H2526   1.045       .  S
C2512      C2513   1.399       .  A
C2512      H2517   1.084       .  S
C2513      C2514   1.414       .  A
C2513      N2518   1.438   1_565  S
C2514      C2515   1.405       .  A
C2515      C2516   1.406       .  A
C2515      H2519   1.083       .  S
C2516      N2520   1.438       .  S
N2518      H2521   1.045       .  S
N2518      H2522   1.046   1_545  S
N2520      H2523   1.046       .  S
N2520      H2524   1.046       .  S
C2529      C2530   1.418       .  A
C2529      C2534   1.410       .  A
C2530      C2531   1.411       .  A
C2530      N2535   1.437       .  S
C2531      C2532   1.402       .  A
C2531      H2536   1.083       .  S
C2532      C2537   1.483       .  S
C2532      C2533   1.406       .  A
C2533      C2534   1.402       .  A
C2533      N2538   1.438       .  S
C2534      H2539   1.083       .  S
N2535      H2555   1.045       .  S
N2535      H2556   1.046       .  S
C2537      C2540   1.404       .  A
C2537      C2544   1.409       .  A
N2538      H2553   1.046       .  S
N2538      H2554   1.046       .  S
C2540      C2541   1.404       .  A
C2540      H2545   1.084       .  S
C2541      C2542   1.409       .  A
C2541      N2546   1.438       .  S
C2542      C2543   1.406       .  A
C2543      C2544   1.409       .  A
C2543      H2547   1.084       .  S
C2544      N2548   1.437       .  S
N2546      H2549   1.046       .  S
N2546      H2550   1.046       .  S
N2548      H2551   1.046       .  S
N2548      H2552   1.046       .  S
