geometry optimzed in LAMMPS
_audit_creation_date              2020-11-30 
_audit_creation_method            'lammps2cif' 
_symmetry_space_group_name_H-M    'P1' 
_symmetry_Int_Tables_number       1 
_symmetry_cell_setting            triclinic 
loop_ 
_symmetry_equiv_pos_as_xyz 
  x,y,z 
_cell_length_a                    52.10150154 
_cell_length_b                    51.988453935584715 
_cell_length_c                    58.138935057576795 
_cell_angle_alpha                 89.84957600932842 
_cell_angle_beta                  90.01221336023441 
_cell_angle_gamma                 121.27938574523397 
loop_ 
_atom_site_label 
_atom_site_type_symbol 
_atom_site_fract_x 
_atom_site_fract_y 
_atom_site_fract_z 
_atom_site_charge 
O1          O  0.49772331  0.93600820  0.01027142    -0.77700
C2          C  0.43576722  0.93830082  0.96183057     0.83300
O3          O  0.55834446  0.02092070  0.96129628    -0.78800
O4          O  0.47311277  0.03582722  0.96697144    -0.80300
O5          O  0.46676668  0.00019117  0.04625633    -0.80100
O6          O  0.50086423  0.96004421  0.04283762    -0.78700
Zn7        Zn  0.49699376  0.96167065  0.98437950     1.55700
O8          O  0.44009907  0.00172181  0.01685460    -0.80100
Cd9        Cd  0.50192450  0.99852946  0.03080603     1.59700
Cd10       Cd  0.53522320  0.03430617  0.98273949     1.59600
O11         O  0.54132375  0.03688908  0.04149653    -0.80100
O12         O  0.49898538  0.99795394  0.99623991    -1.90600
Cd13       Cd  0.46195294  0.99865288  0.98754198     1.59900
O14         O  0.56402517  0.06111659  0.00913718    -0.80100
O15         O  0.43297038  0.96005962  0.96865569    -0.78700
C16         C  0.55431749  0.99531135  0.95572208     0.83800
C17         C  0.49927677  0.93785009  0.03212580     0.83500
O18         O  0.45875563  0.93668734  0.96656671    -0.77700
C19         C  0.44490372  0.00199140  0.03844072     0.84300
O20         O  0.53188286  0.97101377  0.96332747    -0.77800
C21         C  0.56311991  0.05923306  0.03109819     0.84400
C22         C  0.49768138  0.05788529  0.95923160     0.84700
O23         O  0.52296577  0.06040279  0.96346266    -0.80200
O24         O  0.55986295  0.52122310  0.97204524    -0.77700
C25         C  0.50019921  0.55820883  0.96497749     0.83300
O26         O  0.53185767  0.53118032  0.05064908    -0.78800
O27         O  0.43390502  0.49722613  0.01485644    -0.80300
O28         O  0.45792117  0.43444414  0.96763638    -0.80100
O29         O  0.53426613  0.47110452  0.97097309    -0.78700
Zn30       Zn  0.53386111  0.53264531  0.99114141     1.55700
O31         O  0.43477985  0.46036420  0.96719639    -0.80100
Cd32       Cd  0.49517915  0.45936223  0.98921169     1.59700
Cd33       Cd  0.49386418  0.49462747  0.03583134     1.59600
O34         O  0.49337568  0.43243556  0.01658506    -0.80100
O35         O  0.49655669  0.49640165  0.00110572    -1.90600
Cd36       Cd  0.46083823  0.49691476  0.98857856     1.59900
O37         O  0.49214058  0.45615768  0.04808160    -0.80100
O38         O  0.47452492  0.53529264  0.96941754    -0.78700
C39         C  0.55516473  0.55300817  0.04127625     0.83800
C40         C  0.55749152  0.49645166  0.96589632     0.83500
O41         O  0.52450546  0.56049462  0.97219837    -0.77700
C42         C  0.43661414  0.43794846  0.96070448     0.84300
O43         O  0.55814344  0.55567469  0.01942905    -0.77800
C44         C  0.49259344  0.43436493  0.03844936     0.84400
C45         C  0.43489286  0.49604280  0.03673069     0.84700
O46         O  0.45566397  0.49451219  0.04713958    -0.80200
O47         O  0.51035598  0.06225564  0.51273100    -0.77700
C48         C  0.57120021  0.06091328  0.46237181     0.83300
O49         O  0.44964350  0.97586077  0.46457771    -0.78800
O50         O  0.53605712  0.96313441  0.46820152    -0.80300
O51         O  0.54549228  0.00319506  0.54743040    -0.80100
O52         O  0.50524699  0.03670311  0.54488384    -0.78700
Zn53       Zn  0.51110596  0.03673058  0.48673701     1.55700
O54         O  0.57092107  0.00019201  0.51770901    -0.80100
Cd55       Cd  0.50819547  0.00068245  0.53268284     1.59700
Cd56       Cd  0.47413369  0.96407924  0.48576363     1.59600
O57         O  0.47176943  0.96064687  0.54427415    -0.80100
O58         O  0.51040743  0.00101198  0.49820813    -1.90600
Cd59       Cd  0.54739920  0.00088467  0.48853700     1.59900
O60         O  0.44683649  0.93734339  0.51257419    -0.80100
O61         O  0.57478438  0.03950001  0.46892483    -0.78700
C62         C  0.45292252  0.00121257  0.45920208     0.83800
C63         C  0.50726918  0.05934890  0.53450408     0.83500
O64         O  0.54825089  0.06216946  0.46793006    -0.77700
C65         C  0.56734436  0.00168266  0.53933268     0.84300
O66         O  0.47520295  0.02576012  0.46655045    -0.77800
C67         C  0.44950689  0.93834532  0.53442897     0.84400
C68         C  0.51103504  0.94061051  0.46163039     0.84700
O69         O  0.48592922  0.93776396  0.46692415    -0.80200
O70         O  0.06218973  0.50672652  0.98562168    -0.77700
C71         C  0.05886703  0.56887489  0.03116360     0.83300
O72         O  0.97754305  0.44433219  0.03603140    -0.78800
O73         O  0.96164064  0.52975976  0.02757501    -0.80300
O74         O  0.99801409  0.53116332  0.94774657    -0.80100
O75         O  0.03452007  0.49466897  0.95394165    -0.78700
Zn76       Zn  0.03587169  0.50588295  0.01172495     1.55700
O77         O  0.99421991  0.55845556  0.97559957    -0.80100
Cd78       Cd  0.99717682  0.49577460  0.96532577     1.59700
Cd79       Cd  0.96340772  0.46673461  0.01450134     1.59600
O80         O  0.95697934  0.45701538  0.95612676    -0.80100
O81         O  0.99898485  0.50202215  0.99958536    -1.90600
Cd82       Cd  0.99784702  0.53936480  0.00619164     1.59900
O83         O  0.93348069  0.43765493  0.98957454    -0.80100
O84         O  0.03713167  0.57081419  0.02308256    -0.78700
C85         C  0.00331171  0.44916003  0.04193305     0.83800
C86         C  0.05896990  0.50136695  0.96407837     0.83500
O87         O  0.06005881  0.54518476  0.02854114    -0.77700
C88         C  0.99559724  0.55316742  0.95433014     0.84300
O89         O  0.02738140  0.47161687  0.03390589    -0.77800
C90         C  0.93429325  0.43735301  0.96761957     0.84400
C91         C  0.94122163  0.50566697  0.03729577     0.84700
O92         O  0.93959127  0.48054176  0.03438600    -0.80200
O93         O  0.06313699  0.54343660  0.46964687    -0.77700
C94         C  0.06149498  0.49840690  0.53382849     0.83300
O95         O  0.97545465  0.44360060  0.46492052    -0.78800
O96         O  0.96390005  0.46094231  0.54531488    -0.80300
O97         O  0.00465627  0.56485063  0.52236403    -0.80100
O98         O  0.04029344  0.56960205  0.47247451    -0.78700
Zn99       Zn  0.03749918  0.50472115  0.48702583     1.55700
O100        O  0.00377391  0.53594419  0.55115806    -0.80100
Cd101      Cd  0.00273524  0.54167816  0.49243666     1.59700
Cd102      Cd  0.96515547  0.46849924  0.48705608     1.59600
O103        O  0.96446949  0.53209337  0.47359591    -0.80100
O104        O  0.00248061  0.50382057  0.50013583    -1.90600
Cd105      Cd  0.00276712  0.49984141  0.53451711     1.59900
O106        O  0.94024167  0.48234260  0.46886194    -0.80100
O107        O  0.04017157  0.49810307  0.54491903    -0.78700
C108        C  0.00058785  0.44820379  0.45756108     0.83800
C109        C  0.06169888  0.56664689  0.46509587     0.83500
O110        O  0.06289831  0.50073975  0.51193225    -0.77700
C111        C  0.00471717  0.55956210  0.54382746     0.84300
O112        O  0.02527785  0.47080414  0.46433337    -0.77800
C113        C  0.94248907  0.50768574  0.46555258     0.84400
C114        C  0.94022209  0.44083569  0.53510373     0.84700
O115        O  0.93754634  0.44089300  0.51329348    -0.80200
N116        N  0.00126202  0.42650155  0.44249868    -0.02700
C117        C  0.02619571  0.42695761  0.43476196    -0.00100
C118        C  0.01832313  0.39968024  0.42491919    -0.23000
C119        C  0.98768606  0.38199146  0.42613070    -0.23200
C120        C  0.97759780  0.39889800  0.43670719    -0.00200
H121        H  0.03313022  0.39418791  0.41608166     0.13600
H122        H  0.97400485  0.35995547  0.41851021     0.13600
C123        C  0.51185224  0.77489726  0.36929788     0.81000
N124        N  0.51114652  0.77458544  0.34588565    -0.77300
C125        C  0.51197712  0.75257753  0.33388604     0.83400
N126        N  0.51331020  0.73060490  0.34565531    -0.77300
C127        C  0.51408834  0.73058593  0.36909861     0.83500
N128        N  0.51337176  0.75286024  0.38077726    -0.79000
C129        C  0.72808162  0.23556080  0.36763020     0.81000
N130        N  0.75223721  0.25638718  0.37974501    -0.77300
C131        C  0.77494527  0.28082322  0.36901562     0.83400
N132        N  0.77364115  0.28415282  0.34589915    -0.77300
C133        C  0.74967243  0.26332588  0.33341265     0.83500
N134        N  0.72688632  0.23902124  0.34451107    -0.79000
N135        N  0.57955216  0.57672470  0.44531861    -0.02700
C136        C  0.58022055  0.60061450  0.43498173    -0.00100
C137        C  0.60708785  0.61834435  0.42362963    -0.23000
C138        C  0.62369785  0.60519052  0.42690398    -0.23200
C139        C  0.60654852  0.57977547  0.44022886    -0.00200
H140        H  0.61347017  0.63823156  0.41346709     0.13600
H141        H  0.64544612  0.61252704  0.41942436     0.13600
C142        C  0.77805181  0.51149649  0.37348921     0.81000
N143        N  0.75617492  0.51269279  0.38531999    -0.77300
C144        C  0.73433686  0.51468625  0.37419092     0.83400
N145        N  0.73433922  0.51505420  0.35077861    -0.77300
C146        C  0.75562571  0.51329418  0.33848624     0.83500
N147        N  0.77745589  0.51161283  0.35006749    -0.79000
C148        C  0.23450242  0.73063057  0.37303879     0.81000
N149        N  0.23498323  0.73000647  0.34969242    -0.77300
C150        C  0.25855190  0.75210267  0.33765221     0.83400
N151        N  0.28157140  0.77528209  0.34931219    -0.77300
C152        C  0.28112951  0.77625445  0.37267323     0.83500
N153        N  0.25755412  0.75393617  0.38445521    -0.79000
N154        N  0.42997250  0.00200072  0.44585496    -0.02700
C155        C  0.42693223  0.02619558  0.44230672    -0.00100
C156        C  0.39929690  0.01715809  0.43260669    -0.23000
C157        C  0.38498987  0.98664747  0.42968244    -0.23200
C158        C  0.40424349  0.97789475  0.43772756    -0.00200
H159        H  0.39144549  0.03158380  0.42659127     0.13600
H160        H  0.36378199  0.97262593  0.42102808     0.13600
C161        C  0.27472134  0.50885059  0.37892548     0.81000
N162        N  0.27549211  0.50688289  0.35560794    -0.77300
C163        C  0.25328244  0.50556051  0.34238556     0.83400
N164        N  0.23004266  0.50594522  0.35268727    -0.77300
C165        C  0.22920680  0.50826797  0.37593094     0.83500
N166        N  0.25149175  0.50951004  0.38900343    -0.79000
C167        C  0.49452170  0.26949935  0.37656027     0.81000
N168        N  0.49544299  0.26947990  0.35317424    -0.77300
C169        C  0.49449081  0.24645207  0.34136747     0.83400
N170        N  0.49239989  0.22306270  0.35348529    -0.77300
C171        C  0.49240853  0.22299380  0.37683994     0.83500
N172        N  0.49369951  0.24638981  0.38830415    -0.79000
C173        C  0.50567465  0.77306705  0.12242870     0.81000
N174        N  0.50911930  0.75227205  0.11093047    -0.77300
C175        C  0.51270294  0.73167013  0.12262238     0.83400
N176        N  0.51297813  0.73193294  0.14602558    -0.77300
C177        C  0.50941306  0.75243598  0.15788093     0.83500
N178        N  0.50576606  0.77288905  0.14588729    -0.79000
C179        C  0.72820201  0.23325821  0.12346175     0.81000
N180        N  0.72679448  0.23501988  0.14673940    -0.77300
C181        C  0.74818073  0.25948243  0.15838012     0.83400
N182        N  0.77152321  0.28217944  0.14657388    -0.77300
C183        C  0.77341371  0.28063027  0.12335551     0.83500
N184        N  0.75178549  0.25611947  0.11189983    -0.79000
N185        N  0.57864983  0.57569204  0.05538593    -0.02700
C186        C  0.58378058  0.60398953  0.05784937    -0.00100
C187        C  0.61347167  0.62392042  0.06336064    -0.23000
C188        C  0.62725053  0.60758559  0.06426813    -0.23200
C189        C  0.60557910  0.57810592  0.05937507    -0.00200
H190        H  0.62350225  0.64740978  0.06772951     0.13600
H191        H  0.64999297  0.61577013  0.06987985     0.13600
C192        C  0.77010289  0.49757107  0.12837974     0.81000
N193        N  0.76864716  0.49614483  0.15177362    -0.77300
C194        C  0.74707910  0.49823961  0.16328114     0.83400
N195        N  0.72614456  0.50082219  0.15116429    -0.77300
C196        C  0.72685496  0.50143904  0.12775474     0.83500
N197        N  0.74916229  0.50037397  0.11651433    -0.79000
C198        C  0.22855548  0.73132247  0.12696842     0.81000
N199        N  0.22826024  0.72932617  0.15031788    -0.77300
C200        C  0.25128891  0.75089781  0.16300117     0.83400
N201        N  0.27435900  0.77508892  0.15218512    -0.77300
C202        C  0.27478570  0.77755674  0.12889271     0.83500
N203        N  0.25212382  0.75535095  0.11641015    -0.79000
N204        N  0.42436463  0.00310900  0.05436175    -0.02700
C205        C  0.42288697  0.02748121  0.06083930    -0.00100
C206        C  0.39711211  0.01839995  0.07358455    -0.23000
C207        C  0.38215021  0.98768591  0.07502596    -0.23200
C208        C  0.39927377  0.97890626  0.06317262    -0.00200
H209        H  0.39061111  0.03275020  0.08178036     0.13600
H210        H  0.36192367  0.97350268  0.08442246     0.13600
C211        C  0.27141199  0.49884106  0.13104811     0.81000
N212        N  0.27217071  0.49932082  0.15446456    -0.77300
C213        C  0.24933687  0.49786507  0.16698938     0.83400
N214        N  0.22552747  0.49593785  0.15560291    -0.77300
C215        C  0.22474191  0.49621290  0.13219987     0.83500
N216        N  0.24780197  0.49773101  0.12011229    -0.79000
C217        C  0.49234731  0.26893720  0.13188772     0.81000
N218        N  0.49085265  0.24580502  0.11981555    -0.77300
C219        C  0.49031210  0.22237178  0.13085995     0.83400
N220        N  0.49134586  0.22256911  0.15427982    -0.77300
C221        C  0.49243701  0.24540825  0.16645943     0.83500
N222        N  0.49298692  0.26857875  0.15520822    -0.79000
N223        N  0.00492696  0.42810198  0.05732622    -0.02700
C224        C  0.02951039  0.42679457  0.06355129    -0.00100
C225        C  0.02088809  0.40101056  0.07625216    -0.23000
C226        C  0.99034693  0.38602542  0.07826933    -0.23200
C227        C  0.98110042  0.40301408  0.06675775    -0.00200
H228        H  0.03556059  0.39469029  0.08432783     0.13600
H229        H  0.97642863  0.36574303  0.08817463     0.13600
O230        O  0.53023814  0.56304095  0.52928814    -0.77700
C231        C  0.56315364  0.49846711  0.53498476     0.83300
O232        O  0.53159581  0.53478835  0.45272394    -0.78800
O233        O  0.49361782  0.43442868  0.48737308    -0.80300
O234        O  0.44106651  0.46254805  0.54086747    -0.80100
O235        O  0.48034848  0.53824770  0.53371601    -0.78700
Zn236      Zn  0.53856230  0.53442564  0.51124370     1.55700
O237        O  0.46481807  0.43736651  0.53897185    -0.80100
Cd238      Cd  0.46447060  0.49784971  0.51723690     1.59700
Cd239      Cd  0.49512648  0.49725734  0.46847599     1.59600
O240        O  0.43441654  0.49581288  0.49249849    -0.80100
O241        O  0.49987727  0.49848225  0.50295176    -1.90600
Cd242      Cd  0.49898241  0.46183897  0.51470568     1.59900
O243        O  0.45604133  0.49670568  0.45920793    -0.80100
O244        O  0.53979028  0.47355870  0.52953933    -0.78700
C245        C  0.55687805  0.55512907  0.46076412     0.83800
C246        C  0.50632193  0.56157596  0.53650349     0.83500
O247        O  0.56498670  0.52335861  0.53006147    -0.77700
C248        C  0.44402148  0.44069946  0.54728633     0.84300
O249        O  0.56259218  0.55677092  0.48226647    -0.77800
C250        C  0.43482323  0.49632734  0.47054534     0.84400
C251        C  0.49287050  0.43655902  0.46556236     0.84700
O252        O  0.49334525  0.45884583  0.45576902    -0.80200
C253        C  0.49779311  0.72516638  0.62428481     0.81000
N254        N  0.50051776  0.74946779  0.61313144    -0.77300
C255        C  0.50195778  0.77266043  0.62494058     0.83400
N256        N  0.49959138  0.77093071  0.64831172    -0.77300
C257        C  0.49622239  0.74648212  0.65981049     0.83500
N258        N  0.49551987  0.72376767  0.64764139    -0.79000
C259        C  0.72832759  0.49066799  0.62413633     0.81000
N260        N  0.72553768  0.48695347  0.64741502    -0.77300
C261        C  0.74763312  0.48746160  0.66031266     0.83400
N262        N  0.77252708  0.49103734  0.64956871    -0.77300
C263        C  0.77517980  0.49378345  0.62626307     0.83500
N264        N  0.75336431  0.49417075  0.61376782    -0.79000
N265        N  0.58875684  0.00202908  0.55502608    -0.02700
C266        C  0.58974828  0.97801399  0.56318455    -0.00100
C267        C  0.61533858  0.98777495  0.57624893    -0.23000
C268        C  0.63044920  0.01861282  0.57630700    -0.23200
C269        C  0.61368227  0.02684045  0.56328915    -0.00200
H270        H  0.62165045  0.97379772  0.58558947     0.13600
H271        H  0.65070241  0.03350097  0.58589821     0.13600
C272        C  0.76814642  0.27863596  0.62951655     0.81000
N273        N  0.74822998  0.25350352  0.61786085    -0.77300
C274        C  0.72765672  0.22848454  0.62938460     0.83400
N275        N  0.72684026  0.22879929  0.65275836    -0.77300
C276        C  0.74593920  0.25423135  0.66468562     0.83500
N277        N  0.76692324  0.27900059  0.65289322    -0.79000
C278        C  0.22323558  0.49065232  0.62792589     0.81000
N279        N  0.24537479  0.48889613  0.61694147    -0.77300
C280        C  0.26747989  0.48850470  0.62909193     0.83400
N281        N  0.26769601  0.49043881  0.65240724    -0.77300
C282        C  0.24580520  0.49215046  0.66368559     0.83500
N283        N  0.22342340  0.49196168  0.65137975    -0.79000
N284        N  0.42301543  0.41895992  0.56378955    -0.02700
C285        C  0.42239192  0.39412641  0.57231014    -0.00100
C286        C  0.39769238  0.37749806  0.58626212    -0.23000
C287        C  0.38232955  0.39216304  0.58664904    -0.23200
C288        C  0.39803132  0.41733928  0.57288841    -0.00200
H289        H  0.39197735  0.35719571  0.59566071     0.13600
H290        H  0.36203167  0.38553665  0.59630265     0.13600
C291        C  0.49528340  0.21895305  0.62697949     0.81000
N292        N  0.49151164  0.23988989  0.61594358    -0.77300
C293        C  0.48927674  0.26097952  0.62803941     0.83400
N294        N  0.49143672  0.26147537  0.65133148    -0.77300
C295        C  0.49578257  0.24112002  0.66261353     0.83500
N296        N  0.49739071  0.21970992  0.65036385    -0.79000
C297        C  0.28520586  0.76396561  0.62608842     0.81000
N298        N  0.28758573  0.76118017  0.64909232    -0.77300
C299        C  0.26377737  0.73987383  0.66142436     0.83400
N300        N  0.23786407  0.72044787  0.65020547    -0.77300
C301        C  0.23553191  0.72250912  0.62703412     0.83500
N302        N  0.25916036  0.74467835  0.61517730    -0.79000
N303        N  0.00569049  0.58088248  0.56004744    -0.02700
C304        C  0.98167553  0.58157824  0.56832224    -0.00100
C305        C  0.99088682  0.60863269  0.57910549    -0.23000
C306        C  0.02155289  0.62527691  0.57746584    -0.23200
C307        C  0.03017834  0.60789808  0.56569325    -0.00200
H308        H  0.97687639  0.61480665  0.58836943     0.13600
H309        H  0.03617200  0.64704284  0.58516663     0.13600
N310        N  0.99515387  0.57316943  0.93746904    -0.02700
C311        C  0.97158935  0.57661778  0.93250012    -0.00100
C312        C  0.98144266  0.60299614  0.92027218    -0.23000
C313        C  0.01184313  0.61615311  0.91752703    -0.23200
C314        C  0.01971564  0.59746038  0.92814081    -0.00200
H315        H  0.96765550  0.61075647  0.91280997     0.13600
H316        H  0.02638881  0.63621938  0.90768741     0.13600
C317        C  0.49773362  0.22878971  0.87321266     0.81000
N318        N  0.49909750  0.22977521  0.84988969    -0.77300
C319        C  0.49894687  0.25210136  0.83779094     0.83400
N320        N  0.49601428  0.27309563  0.84955270    -0.77300
C321        C  0.49394688  0.27214324  0.87296334     0.83500
N322        N  0.49523714  0.25014957  0.88476013    -0.79000
C323        C  0.27359475  0.76166706  0.87200333     0.81000
N324        N  0.24803837  0.73995247  0.88243638    -0.77300
C325        C  0.22663547  0.71637239  0.87005034     0.83400
N326        N  0.23039933  0.71518221  0.84704089    -0.77300
C327        C  0.25543628  0.73722229  0.83627249     0.83500
N328        N  0.27715423  0.76023092  0.84894413    -0.79000
C329        C  0.49632884  0.72082341  0.87067004     0.81000
N330        N  0.49899709  0.74439165  0.88277762    -0.77300
C331        C  0.50258066  0.76908970  0.87172253     0.83400
N332        N  0.50261695  0.76976113  0.84826511    -0.77300
C333        C  0.49918834  0.74594696  0.83580731     0.83500
N334        N  0.49683141  0.72185868  0.84725547    -0.79000
C335        C  0.72055221  0.49121427  0.87177918     0.81000
N336        N  0.74538447  0.49464233  0.88248753    -0.77300
C337        C  0.76761408  0.49447942  0.87034032     0.83400
N338        N  0.76466487  0.49069092  0.84711307    -0.77300
C339        C  0.73996680  0.48704668  0.83597575     0.83500
N340        N  0.71796432  0.48726995  0.84852774    -0.79000
N341        N  0.57643541  0.99406379  0.94152062    -0.02700
C342        C  0.57912489  0.96976818  0.93702882    -0.00100
C343        C  0.60598382  0.97891286  0.92586029    -0.23000
C344        C  0.62015887  0.00944392  0.92302337    -0.23200
C345        C  0.60165793  0.01817101  0.93258375    -0.00200
H346        H  0.61353715  0.96455486  0.91918297     0.13600
H347        H  0.64098620  0.02360958  0.91388298     0.13600
C348        C  0.75728921  0.27667481  0.87509240     0.81000
N349        N  0.75566063  0.27718069  0.85169406    -0.77300
C350        C  0.73443559  0.25271889  0.83984853     0.83400
N351        N  0.71390785  0.22791301  0.85171509    -0.77300
C352        C  0.71495495  0.22713770  0.87501092     0.83500
N353        N  0.73703499  0.25118053  0.88652512    -0.79000
C354        C  0.22401886  0.49759269  0.87372994     0.81000
N355        N  0.24484568  0.49536108  0.88624078    -0.77300
C356        C  0.26575532  0.49143051  0.87552408     0.83400
N357        N  0.26604712  0.49025801  0.85211006    -0.77300
C358        C  0.24558502  0.49297074  0.83936716     0.83500
N359        N  0.22429155  0.49604448  0.85040645    -0.79000
N360        N  0.41345879  0.41554695  0.94592442    -0.02700
C361        C  0.38771203  0.41420622  0.93899642    -0.00100
C362        C  0.36905536  0.38751917  0.92772600    -0.23000
C363        C  0.38353006  0.37187498  0.92731203    -0.23200
C364        C  0.41067341  0.38934072  0.93841755    -0.00200
H365        H  0.34792996  0.38097617  0.91951990     0.13600
H366        H  0.37571781  0.35055085  0.91889685     0.13600
C367        C  0.29836644  0.44864679  0.90427608    -0.04700
C368        C  0.32543279  0.47227490  0.91372988     0.09500
C369        C  0.33190082  0.50216958  0.91178694    -0.02100
C370        C  0.31226715  0.50850882  0.89956012    -0.00300
C371        C  0.28587114  0.48495850  0.88935192    -0.04000
C372        C  0.27858105  0.45495273  0.89237345     0.03100
C373        C  0.34771602  0.46542162  0.92426129     0.09900
C374        C  0.35887606  0.52633008  0.92232373     0.35800
C375        C  0.25039040  0.43048427  0.88349608     0.39200
C376        C  0.37294181  0.47047907  0.91139510    -0.04300
C377        C  0.38947623  0.45717515  0.91829055     0.02800
C378        C  0.38110883  0.43890228  0.93819460    -0.03900
C379        C  0.35839845  0.43713920  0.95258357    -0.00100
C380        C  0.34176516  0.45039335  0.94566717    -0.02700
C381        C  0.38053452  0.48751511  0.89010724     0.36500
C382        C  0.35074606  0.41976845  0.97369159     0.40200
C383        C  0.41292450  0.45946613  0.90344892     0.39300
C384        C  0.31740977  0.44714992  0.95989919     0.36200
C385        C  0.29111516  0.41776933  0.90643310     0.36900
C386        C  0.31937633  0.53929614  0.89723729     0.40100
N387        N  0.43135322  0.46116805  0.89132909    -0.37900
N388        N  0.38667453  0.50123822  0.87318101    -0.39500
N389        N  0.34468991  0.40594420  0.99056503    -0.37300
N390        N  0.29794021  0.44457265  0.97122708    -0.39600
N391        N  0.38047426  0.54543968  0.93081692    -0.39400
N392        N  0.32502326  0.56387094  0.89539419    -0.37000
N393        N  0.22776338  0.41101546  0.87656719    -0.38100
N394        N  0.28534840  0.39315155  0.90824544    -0.39800
C395        C  0.64676668  0.16269960  0.90516875    -0.04700
C396        C  0.65602919  0.14170716  0.90782826     0.09500
C397        C  0.68519723  0.14957506  0.90077822    -0.02100
C398        C  0.70482666  0.17804192  0.89096511    -0.00300
C399        C  0.69510761  0.19847634  0.88732095    -0.04000
C400        C  0.66610965  0.19086113  0.89456927     0.03100
C401        C  0.63502343  0.11055570  0.91682997     0.09900
C402        C  0.69471724  0.12795111  0.90310147     0.35800
C403        C  0.65614587  0.21191276  0.89089418     0.39200
C404        C  0.61479389  0.08794759  0.90163086    -0.04300
C405        C  0.60126771  0.05733324  0.90781141     0.02800
C406        C  0.60764006  0.04920526  0.92932381    -0.03900
C407        C  0.62546731  0.07184782  0.94537599    -0.00100
C408        C  0.63900744  0.10249305  0.93918372    -0.02700
C409        C  0.60951597  0.09617008  0.87902645     0.36500
C410        C  0.63154591  0.06355429  0.96764514     0.40200
C411        C  0.58271272  0.03414580  0.89129861     0.39300
C412        C  0.65862545  0.12577656  0.95522647     0.36200
C413        C  0.61744921  0.15531713  0.91340510     0.36900
C414        C  0.73500339  0.18623169  0.88435979     0.40100
N415        N  0.56812185  0.01571265  0.87802264    -0.37900
N416        N  0.60524716  0.10278301  0.86103378    -0.39500
N417        N  0.63638212  0.05686481  0.98540118    -0.37300
N418        N  0.67434530  0.14441562  0.96798144    -0.39600
N419        N  0.70211754  0.11055946  0.90495084    -0.39400
N420        N  0.75913801  0.19287331  0.87919877    -0.37000
N421        N  0.64822364  0.22872921  0.88787561    -0.38100
N422        N  0.59416011  0.14957163  0.92016081    -0.39800
C423        C  0.54950387  0.88704124  0.94205374    -0.04700
C424        C  0.52924044  0.87649363  0.92340618     0.09500
C425        C  0.51886985  0.89488568  0.91467142    -0.02100
C426        C  0.53169809  0.92492146  0.92239641    -0.00300
C427        C  0.55564232  0.93701003  0.93833303    -0.04000
C428        C  0.56296394  0.91728515  0.94927798     0.03100
C429        C  0.52229772  0.84817132  0.91095381     0.09900
C430        C  0.49658644  0.88360537  0.89652113     0.35800
C431        C  0.58638563  0.92886163  0.96657052     0.39200
C432        C  0.49397162  0.82140435  0.91299318    -0.04300
C433        C  0.48739433  0.79559573  0.90008512     0.02800
C434        C  0.50926496  0.79619133  0.88530373    -0.03900
C435        C  0.53815311  0.82236987  0.88436640    -0.00100
C436        C  0.54446110  0.84837198  0.89674137    -0.02700
C437        C  0.47183383  0.82033086  0.92869340     0.36500
C438        C  0.56199935  0.82196617  0.87181809     0.40200
C439        C  0.45806906  0.76840870  0.90198242     0.39300
C440        C  0.57396046  0.87542357  0.89493227     0.36200
C441        C  0.55792208  0.86725018  0.95275693     0.36900
C442        C  0.52206519  0.94410214  0.91242126     0.40100
N443        N  0.43467229  0.74669241  0.90353194    -0.37900
N444        N  0.45424977  0.81947775  0.94133259    -0.39500
N445        N  0.58121809  0.82153516  0.86219984    -0.37300
N446        N  0.59751066  0.89698407  0.89359430    -0.39600
N447        N  0.47876667  0.87450924  0.88205133    -0.39400
N448        N  0.51410389  0.95927831  0.90460565    -0.37000
N449        N  0.60524700  0.93798921  0.98023230    -0.38100
N450        N  0.56456007  0.85139222  0.96129205    -0.39800
C451        C  0.45024506  0.30796579  0.89406247    -0.04700
C452        C  0.47083155  0.33014283  0.90947984     0.09500
C453        C  0.49943613  0.33370409  0.91244569    -0.02100
C454        C  0.50720541  0.31508945  0.90028996    -0.00300
C455        C  0.48633274  0.29249074  0.88530313    -0.04000
C456        C  0.45780217  0.28905020  0.88228676     0.03100
C457        C  0.46176588  0.34933214  0.92242289     0.09900
C458        C  0.52087037  0.35655552  0.92798681     0.35800
C459        C  0.43576439  0.26539590  0.86754044     0.39200
C460        C  0.43913063  0.33614375  0.93944528    -0.04300
C461        C  0.42499976  0.35141928  0.94736372     0.02800
C462        C  0.43352845  0.38016036  0.93854458    -0.03900
C463        C  0.45895653  0.39499912  0.92402935    -0.00100
C464        C  0.47281281  0.37950527  0.91577506    -0.02700
C465        C  0.42884026  0.30588954  0.94754554     0.36500
C466        C  0.46963525  0.42542235  0.91624183     0.40200
C467        C  0.39998277  0.33660880  0.96331445     0.39300
C468        C  0.49697899  0.39387345  0.89912212     0.36200
C469        C  0.42114546  0.30467347  0.89025246     0.36900
C470        C  0.53701045  0.31975535  0.90272622     0.40100
N471        N  0.37991810  0.32483991  0.97593572    -0.37900
N472        N  0.42044793  0.28166532  0.95389281    -0.39500
N473        N  0.47872825  0.44988897  0.91017534    -0.37300
N474        N  0.51630423  0.40538279  0.88585740    -0.39600
N475        N  0.53802601  0.37496238  0.94026846    -0.39400
N476        N  0.56093166  0.32375869  0.90456939    -0.37000
N477        N  0.41808993  0.24649608  0.85584451    -0.38100
N478        N  0.39795277  0.30210956  0.88733473    -0.39800
C479        C  0.10352107  0.63409734  0.93315646    -0.04700
C480        C  0.11060786  0.63073836  0.91033604     0.09500
C481        C  0.08760896  0.60996112  0.89569610    -0.02100
C482        C  0.05733691  0.59584148  0.90273516    -0.00300
C483        C  0.04998060  0.60173409  0.92472973    -0.04000
C484        C  0.07321749  0.61937075  0.94041146     0.03100
C485        C  0.14094714  0.65267610  0.90049132     0.09900
C486        C  0.09502305  0.60484302  0.87278273     0.35800
C487        C  0.06581331  0.62417604  0.96340188     0.39200
C488        C  0.16362077  0.64559971  0.89895967    -0.04300
C489        C  0.19179943  0.66645330  0.88909213     0.02800
C490        C  0.19738909  0.69449313  0.88079670    -0.03900
C491        C  0.17452646  0.70132636  0.88204357    -0.00100
C492        C  0.14643742  0.68050943  0.89181460    -0.02700
C493        C  0.15764104  0.61669737  0.90725822     0.36500
C494        C  0.17963480  0.72951730  0.87271165     0.40200
C495        C  0.21492283  0.65897456  0.88720580     0.39300
C496        C  0.12279575  0.68740459  0.89251418     0.36200
C497        C  0.12732348  0.65438337  0.94857728     0.36900
C498        C  0.03359632  0.57746049  0.88654812     0.40100
N499        N  0.23337929  0.65300662  0.88562047    -0.37900
N500        N  0.15253057  0.59349678  0.91388159    -0.39500
N501        N  0.18353571  0.75187513  0.86512357    -0.37300
N502        N  0.10381278  0.69271779  0.89304329    -0.39600
N503        N  0.10102278  0.60071475  0.85454325    -0.39400
N504        N  0.01468862  0.56305685  0.87354737    -0.37000
N505        N  0.05991936  0.62793085  0.98179389    -0.38100
N506        N  0.14640086  0.67067404  0.96080314    -0.39800
C507        C  0.82143734  0.49435641  0.91559694    -0.04700
C508        C  0.84968212  0.51503840  0.90601186     0.09500
C509        C  0.85104404  0.52812303  0.88438094    -0.02100
C510        C  0.82444226  0.52091802  0.87250908    -0.00300
C511        C  0.79589726  0.50063248  0.88224780    -0.04000
C512        C  0.79468435  0.48714006  0.90382948     0.03100
C513        C  0.87833168  0.52440546  0.91883478     0.09900
C514        C  0.88007182  0.54985434  0.87462961     0.35800
C515        C  0.76594733  0.46523776  0.91382284     0.39200
C516        C  0.89662101  0.51292635  0.91244393    -0.04300
C517        C  0.92688246  0.52744204  0.91980625     0.02800
C518        C  0.93886892  0.55339328  0.93380679    -0.03900
C519        C  0.91920765  0.56197991  0.94281419    -0.00100
C520        C  0.88916022  0.54779118  0.93516443    -0.02700
C521        C  0.88475571  0.48730972  0.89710675     0.36500
C522        C  0.93069256  0.58708272  0.95865128     0.40200
C523        C  0.94618423  0.51725808  0.91114495     0.39300
C524        C  0.87006762  0.55879119  0.94271813     0.36200
C525        C  0.82003989  0.48072009  0.93771315     0.36900
C526        C  0.82675404  0.53552874  0.85065661     0.40100
N527        N  0.96128581  0.50880657  0.90411227    -0.37900
N528        N  0.87525781  0.46684260  0.88488312    -0.39500
N529        N  0.93991355  0.60706459  0.97133539    -0.37300
N530        N  0.85482028  0.56758857  0.94869189    -0.39600
N531        N  0.90326635  0.56722568  0.86696534    -0.39400
N532        N  0.82867487  0.54714817  0.83319397    -0.37000
N533        N  0.74305958  0.44773865  0.92186097    -0.38100
N534        N  0.81909152  0.46998502  0.95539744    -0.39800
C535        C  0.27901091  0.76656311  0.72404924    -0.04700
C536        C  0.26440289  0.73897967  0.73607912     0.09500
C537        C  0.25101138  0.71173054  0.72372771    -0.02100
C538        C  0.25146107  0.71197172  0.69943071    -0.00300
C539        C  0.26506470  0.73960403  0.68716943    -0.04000
C540        C  0.27918057  0.76697565  0.69975588     0.03100
C541        C  0.26225157  0.73858567  0.76182253     0.09900
C542        C  0.23675007  0.68337624  0.73616670     0.35800
C543        C  0.29287400  0.79576291  0.68794078     0.39200
C544        C  0.23546007  0.73285024  0.77247113    -0.04300
C545        C  0.23309085  0.73207384  0.79668995     0.02800
C546        C  0.25779696  0.73752197  0.81060486    -0.03900
C547        C  0.28476186  0.74357605  0.79975940    -0.00100
C548        C  0.28684696  0.74388633  0.77551424    -0.02700
C549        C  0.21037453  0.72809273  0.75836889     0.36500
C550        C  0.31028803  0.74861450  0.81331946     0.40200
C551        C  0.20531828  0.72644315  0.80709640     0.39300
C552        C  0.31427963  0.74939736  0.76454440     0.36200
C553        C  0.29356014  0.79461563  0.73677724     0.36900
C554        C  0.23849555  0.68364425  0.68718098     0.40100
N555        N  0.18299982  0.72175948  0.81520384    -0.37900
N556        N  0.19043655  0.72433275  0.74705825    -0.39500
N557        N  0.33109254  0.75275083  0.82361063    -0.37300
N558        N  0.33614081  0.75380641  0.75575851    -0.39600
N559        N  0.22537182  0.66084195  0.74619569    -0.39400
N560        N  0.22815070  0.66099085  0.67748388    -0.37000
N561        N  0.30385392  0.81876344  0.67857592    -0.38100
N562        N  0.30532117  0.81696114  0.74695380    -0.39800
C563        C  0.17980519  0.67091363  0.58133691    -0.04700
C564        C  0.15248150  0.66605056  0.59022715     0.09500
C565        C  0.15228391  0.67920522  0.61141097    -0.02100
C566        C  0.17919983  0.69703498  0.62371020    -0.00300
C567        C  0.20676216  0.70217129  0.61480237    -0.04000
C568        C  0.20685167  0.68884086  0.59356331     0.03100
C569        C  0.12344871  0.64696106  0.57770101     0.09900
C570        C  0.12424511  0.67479026  0.62034212     0.35800
C571        C  0.23465548  0.69285539  0.58451128     0.39200
C572        C  0.10348498  0.61718680  0.58509780    -0.04300
C573        C  0.07298062  0.60210184  0.57849237     0.02800
C574        C  0.06236205  0.61689894  0.56445408    -0.03900
C575        C  0.08328575  0.64527960  0.55484495    -0.00100
C576        C  0.11383383  0.66007726  0.56121566    -0.02700
C577        C  0.11401887  0.60300243  0.60087558     0.36500
C578        C  0.07287003  0.66031062  0.53981372     0.40200
C579        C  0.05224561  0.57275343  0.58821782     0.39300
C580        C  0.13505201  0.68957226  0.55190717     0.36200
C581        C  0.18001103  0.65751724  0.55955259     0.36900
C582        C  0.17847367  0.71090302  0.64514280     0.40100
N583        N  0.03616209  0.54929539  0.59616553    -0.37900
N584        N  0.12253962  0.59183445  0.61350468    -0.39500
N585        N  0.06450778  0.67225827  0.52783312    -0.37300
N586        N  0.15207561  0.71300217  0.54434285    -0.39600
N587        N  0.10185218  0.67127121  0.62736026    -0.39400
N588        N  0.17786536  0.72188414  0.66226601    -0.37000
N589        N  0.25686465  0.69608524  0.57732921    -0.38100
N590        N  0.18015845  0.64690358  0.54211876    -0.39800
C591        C  0.48073394  0.21824380  0.72601012    -0.04700
C592        C  0.50048393  0.24578117  0.73704081     0.09500
C593        C  0.51973392  0.27134751  0.72362279    -0.02100
C594        C  0.51852566  0.26971100  0.69936009    -0.00300
C595        C  0.49834267  0.24227767  0.68822509    -0.04000
C596        C  0.47985134  0.21639553  0.70172771     0.03100
C597        C  0.50067899  0.24808488  0.76283269     0.09900
C598        C  0.54084739  0.29939723  0.73488830     0.35800
C599        C  0.45902817  0.18806099  0.69069138     0.39200
C600        C  0.51607327  0.23786136  0.77632793    -0.04300
C601        C  0.51644824  0.24019729  0.80056852     0.02800
C602        C  0.50080418  0.25237879  0.81183557    -0.03900
C603        C  0.48618540  0.26355773  0.79794709    -0.00100
C604        C  0.48594816  0.26109787  0.77369084    -0.02700
C605        C  0.53164607  0.22489166  0.76513779     0.36500
C606        C  0.47107815  0.27756296  0.80817884     0.40200
C607        C  0.53408800  0.23096462  0.81363192     0.39300
C608        C  0.47004922  0.27157421  0.75972734     0.36200
C609        C  0.46081628  0.19194321  0.73971943     0.36900
C610        C  0.53855333  0.29624193  0.68588050     0.40100
N611        N  0.54818373  0.22356503  0.82396157    -0.37900
N612        N  0.54394439  0.21443808  0.75619828    -0.39500
N613        N  0.45922882  0.28924358  0.81584236    -0.37300
N614        N  0.45739132  0.27985698  0.74850484    -0.39600
N615        N  0.55767689  0.32172517  0.74393943    -0.39400
N616        N  0.55449765  0.31741972  0.67513317    -0.37000
N617        N  0.44247948  0.16544998  0.68185776    -0.38100
N618        N  0.44492101  0.17098808  0.75069017    -0.39800
C619        C  0.44887846  0.34084569  0.56372185    -0.04700
C620        C  0.46795995  0.34838289  0.58297132     0.09500
C621        C  0.47861577  0.37629317  0.59394724    -0.02100
C622        C  0.46709898  0.39464866  0.58772554    -0.00300
C623        C  0.44526327  0.38538258  0.57023671    -0.04000
C624        C  0.43787212  0.35955807  0.55718938     0.03100
C625        C  0.47326112  0.32532555  0.59380993     0.09900
C626        C  0.50010370  0.38516900  0.61255449     0.35800
C627        C  0.41660894  0.35081264  0.53842927     0.39200
C628        C  0.49863390  0.32366662  0.58799731    -0.04300
C629        C  0.50383445  0.30253512  0.59907848     0.02800
C630        C  0.48358972  0.28284395  0.61599314    -0.03900
C631        C  0.45813670  0.28451924  0.62174190    -0.00100
C632        C  0.45309444  0.30575202  0.61077469    -0.02700
C633        C  0.51968795  0.34420960  0.57098719     0.36500
C634        C  0.43680736  0.26405995  0.63870933     0.40200
C635        C  0.53076651  0.30200973  0.59385537     0.39300
C636        C  0.42734850  0.30788461  0.61722070     0.36200
C637        C  0.43879385  0.31272197  0.55180162     0.36900
C638        C  0.47537721  0.42150988  0.60087754     0.40100
N639        N  0.55232373  0.30163225  0.58984682    -0.37900
N640        N  0.53650696  0.36069562  0.55744615    -0.39500
N641        N  0.41981058  0.24773696  0.65224096    -0.37300
N642        N  0.40693437  0.30976318  0.62239515    -0.39600
N643        N  0.51739095  0.39217703  0.62729570    -0.39400
N644        N  0.48191026  0.44284743  0.61149262    -0.37000
N645        N  0.39964014  0.34391339  0.52346396    -0.38100
N646        N  0.43066717  0.29021310  0.54234989    -0.39800
C647        C  0.25106540  0.47135702  0.77712278    -0.04700
C648        C  0.24621303  0.49162626  0.76437516     0.09500
C649        C  0.24158700  0.51253910  0.77625973    -0.02100
C650        C  0.24208129  0.51342819  0.80058613    -0.00300
C651        C  0.24636827  0.49274976  0.81350726    -0.04000
C652        C  0.25085404  0.47167141  0.80149662     0.03100
C653        C  0.24628946  0.49132486  0.73840425     0.09900
C654        C  0.23612088  0.53314460  0.76334021     0.35800
C655        C  0.25430224  0.44952614  0.81407855     0.39200
C656        C  0.22144350  0.46857845  0.72610866    -0.04300
C657        C  0.22125432  0.46886127  0.70175505     0.02800
C658        C  0.24560281  0.49227915  0.68940048    -0.03900
C659        C  0.27055956  0.51490690  0.70171187    -0.00100
C660        C  0.27104396  0.51420570  0.72603800    -0.02700
C661        C  0.19610778  0.44470704  0.73856409     0.36500
C662        C  0.29557423  0.53934373  0.68936566     0.40200
C663        C  0.19659482  0.44425275  0.68937437     0.39300
C664        C  0.29727259  0.53681049  0.73842902     0.36200
C665        C  0.25631850  0.45011584  0.76506967     0.36900
C666        C  0.23921233  0.53649286  0.81219504     0.40100
N667        N  0.17710469  0.42453637  0.67941179    -0.37900
N668        N  0.17596199  0.42557952  0.74852283    -0.39500
N669        N  0.31549915  0.55890849  0.67953734    -0.37300
N670        N  0.31820130  0.55472236  0.74838504    -0.39600
N671        N  0.23176230  0.54954188  0.75298113    -0.39400
N672        N  0.23700295  0.55495182  0.82142721    -0.37000
N673        N  0.25704969  0.43178112  0.82401177    -0.38100
N674        N  0.26044818  0.43314461  0.75542025    -0.39800
C675        C  0.32909265  0.49536260  0.58908801    -0.04700
C676        C  0.33060177  0.47008175  0.59579238     0.09500
C677        C  0.31113304  0.45074506  0.61317773    -0.02100
C678        C  0.29051882  0.45676437  0.62391474    -0.00300
C679        C  0.28905553  0.48218168  0.61734519    -0.04000
C680        C  0.30825431  0.50130799  0.59970755     0.03100
C681        C  0.35207970  0.46299596  0.58438042     0.09900
C682        C  0.31218489  0.42440753  0.61991187     0.35800
C683        C  0.30700975  0.52744226  0.59278392     0.39200
C684        C  0.38176460  0.47579806  0.59260425    -0.04300
C685        C  0.39958223  0.46395119  0.58560340     0.02800
C686        C  0.38756845  0.43895506  0.57068780    -0.03900
C687        C  0.35920369  0.42853478  0.56051018    -0.00100
C688        C  0.34155852  0.44057725  0.56727382    -0.02700
C689        C  0.39303686  0.49952830  0.60963240     0.36500
C690        C  0.34695558  0.40323083  0.54481246     0.40200
C691        C  0.42913331  0.47550913  0.59546758     0.39300
C692        C  0.31158740  0.42828594  0.55799858     0.36200
C693        C  0.34903142  0.51516533  0.57123363     0.36900
C694        C  0.27004402  0.43613692  0.64122839     0.40100
N695        N  0.45275186  0.48479006  0.60330489    -0.37900
N696        N  0.40193770  0.51840132  0.62328345    -0.39500
N697        N  0.33721492  0.38294626  0.53239032    -0.37300
N698        N  0.28761484  0.41844210  0.55070007    -0.39600
N699        N  0.31294671  0.40334296  0.62521715    -0.39400
N700        N  0.25362772  0.41976414  0.65501942    -0.37000
N701        N  0.30601094  0.54829176  0.58721122    -0.38100
N702        N  0.36507744  0.53090806  0.55700549    -0.39800
C703        C  0.71318510  0.24010951  0.72571181    -0.04700
C704        C  0.73929668  0.25258487  0.73935560     0.09500
C705        C  0.76765424  0.26643704  0.72859740    -0.02100
C706        C  0.77002286  0.26841405  0.70435018    -0.00300
C707        C  0.74382071  0.25463772  0.69044804    -0.04000
C708        C  0.71532659  0.24071539  0.70143810     0.03100
C709        C  0.73709900  0.25213198  0.76514863     0.09900
C710        C  0.79448869  0.27833022  0.74262285     0.35800
C711        C  0.68805878  0.22816721  0.68787087     0.39200
C712        C  0.73236476  0.22683343  0.77778034    -0.04300
C713        C  0.73162954  0.22698480  0.80209833     0.02800
C714        C  0.73492295  0.25231084  0.81407334    -0.03900
C715        C  0.73884065  0.27729732  0.80122571    -0.00100
C716        C  0.74026904  0.27730271  0.77694350    -0.02700
C717        C  0.72839808  0.20065267  0.76565307     0.36500
C718        C  0.74023162  0.30262720  0.81286737     0.40200
C719        C  0.72850908  0.20134455  0.81465205     0.39300
C720        C  0.74487207  0.30322306  0.76394757     0.36200
C721        C  0.68405995  0.22697031  0.73676248     0.36900
C722        C  0.79965248  0.28503934  0.69406603     0.40100
N723        N  0.72600922  0.18082276  0.82456283    -0.37900
N724        N  0.72507291  0.17972793  0.75594499    -0.39500
N725        N  0.74116377  0.32277192  0.82212986    -0.37300
N726        N  0.74860436  0.32385990  0.75348191    -0.39600
N727        N  0.81582957  0.28754091  0.75383902    -0.39400
N728        N  0.82357089  0.29906777  0.68639374    -0.37000
N729        N  0.66629749  0.21815680  0.67706430    -0.38100
N730        N  0.66086765  0.21662817  0.74563066    -0.39800
C731        C  0.62286567  0.09740087  0.58830988    -0.04700
C732        C  0.65043233  0.11879369  0.57819364     0.09500
C733        C  0.66060241  0.11089026  0.55848446    -0.02100
C734        C  0.64558854  0.08061921  0.55109960    -0.00300
C735        C  0.62032590  0.05832142  0.56334418    -0.04000
C736        C  0.60787103  0.06719727  0.58095458     0.03100
C737        C  0.67080154  0.14759428  0.59062716     0.09900
C738        C  0.68739060  0.13362492  0.54666424     0.35800
C739        C  0.58142776  0.04488254  0.59328565     0.39200
C740        C  0.69226144  0.14880021  0.60618989    -0.04300
C741        C  0.71078257  0.17520119  0.61889491     0.02800
C742        C  0.70764488  0.20045216  0.61643786    -0.03900
C743        C  0.68593369  0.19912717  0.60109158    -0.00100
C744        C  0.66757796  0.17276614  0.58820125    -0.02700
C745        C  0.69474652  0.12249318  0.60950987     0.36500
C746        C  0.68178518  0.22454650  0.59917860     0.40200
C747        C  0.73352804  0.17659560  0.63414194     0.39300
C748        C  0.64492467  0.17120476  0.57280293     0.36200
C749        C  0.61119636  0.10607338  0.60749508     0.36900
C750        C  0.65729314  0.07197108  0.53195032     0.40100
N751        N  0.75173775  0.17776742  0.64625327    -0.37900
N752        N  0.69650727  0.10139601  0.61220207    -0.39500
N753        N  0.67835917  0.24477527  0.59778231    -0.37300
N754        N  0.62671068  0.16981311  0.56058175    -0.39600
N755        N  0.70868639  0.15185876  0.53717533    -0.39400
N756        N  0.66660784  0.06508457  0.51662975    -0.37000
N757        N  0.56045567  0.02765861  0.60359628    -0.38100
N758        N  0.60192921  0.11309816  0.62275918    -0.39800
C759        C  0.72579064  0.49701463  0.77239498    -0.04700
C760        C  0.73762582  0.48151924  0.76096470     0.09500
C761        C  0.74831533  0.46616212  0.77409970    -0.02100
C762        C  0.74826175  0.46720931  0.79845025    -0.00300
C763        C  0.73782412  0.48405991  0.81011006    -0.04000
C764        C  0.72608807  0.49856129  0.79674117     0.03100
C765        C  0.74014208  0.48261058  0.73507007     0.09900
C766        C  0.75930797  0.44911557  0.76243419     0.35800
C767        C  0.71532304  0.51619211  0.80776953     0.39200
C768        C  0.76663362  0.50528238  0.72432140    -0.04300
C769        C  0.76916834  0.50685268  0.70004621     0.02800
C770        C  0.74516221  0.48562531  0.68609450    -0.03900
C771        C  0.71854346  0.46295689  0.69696979    -0.00100
C772        C  0.71610244  0.46149088  0.72128379    -0.02700
C773        C  0.79122440  0.52737825  0.73837937     0.36500
C774        C  0.69378659  0.44061191  0.68319261     0.40200
C775        C  0.79617458  0.53124840  0.68959252     0.39300
C776        C  0.68876892  0.43824661  0.73220662     0.36200
C777        C  0.71342758  0.51157774  0.75892707     0.36900
C778        C  0.75826551  0.45012571  0.81140285     0.40100
N779        N  0.81789489  0.55092591  0.68160453    -0.37900
N780        N  0.81077268  0.54499526  0.74964380    -0.39500
N781        N  0.67403393  0.42281966  0.67217280    -0.37300
N782        N  0.66694295  0.41973215  0.74095111    -0.39600
N783        N  0.76797521  0.43544349  0.75309659    -0.39400
N784        N  0.76621202  0.43644480  0.82170782    -0.37000
N785        N  0.70666571  0.53027522  0.81645891    -0.38100
N786        N  0.70340803  0.52295958  0.74807670    -0.39800
C787        C  0.83458031  0.48688518  0.59295830    -0.04700
C788        C  0.85950190  0.51648567  0.59470067     0.09500
C789        C  0.85625376  0.53867204  0.60597977    -0.02100
C790        C  0.82837360  0.53131692  0.61552919    -0.00300
C791        C  0.80386540  0.50140348  0.61493439    -0.04000
C792        C  0.80682750  0.47927511  0.60319705     0.03100
C793        C  0.88953956  0.52490793  0.58493221     0.09900
C794        C  0.88178036  0.56916931  0.60781580     0.35800
C795        C  0.78128838  0.44882390  0.60146264     0.39200
C796        C  0.89762307  0.53697706  0.56248993    -0.04300
C797        C  0.92805583  0.55228606  0.55551976     0.02800
C798        C  0.95044437  0.55576645  0.57104551    -0.03900
C799        C  0.94188565  0.54101036  0.59259835    -0.00100
C800        C  0.91147320  0.52534147  0.59941179    -0.02700
C801        C  0.87487118  0.53545350  0.54723779     0.36500
C802        C  0.96472534  0.54427314  0.60864286     0.40200
C803        C  0.93665668  0.56648757  0.53307313     0.39300
C804        C  0.90299005  0.51150778  0.62200657     0.36200
C805        C  0.83765965  0.46448088  0.58056105     0.36900
C806        C  0.82446056  0.55484335  0.62500087     0.40100
N807        N  0.94352981  0.57779189  0.51513806    -0.37900
N808        N  0.85662282  0.53421295  0.53513938    -0.39500
N809        N  0.98283734  0.54693273  0.62156507    -0.37300
N810        N  0.89623567  0.50046593  0.64003467    -0.39600
N811        N  0.90224264  0.59342379  0.60935054    -0.39400
N812        N  0.82114016  0.57367695  0.63214285    -0.37000
N813        N  0.76090151  0.42451687  0.59996040    -0.38100
N814        N  0.84039935  0.44687559  0.57049651    -0.39800
C815        C  0.47591675  0.75199071  0.72233235    -0.04700
C816        C  0.49487977  0.74503526  0.73469937     0.09500
C817        C  0.51391859  0.73809111  0.72248393    -0.02100
C818        C  0.51405840  0.73809365  0.69813689    -0.00300
C819        C  0.49545547  0.74559918  0.68562493    -0.04000
C820        C  0.47639954  0.75259853  0.69796848     0.03100
C821        C  0.49525548  0.74548258  0.76064733     0.09900
C822        C  0.53368140  0.73124347  0.73509325     0.35800
C823        C  0.45666649  0.75975601  0.68564924     0.39200
C824        C  0.47605003  0.71920295  0.77333600    -0.04300
C825        C  0.47723488  0.71931879  0.79769797     0.02800
C826        C  0.49765425  0.74597298  0.80984168    -0.03900
C827        C  0.51641806  0.77251228  0.79686991    -0.00100
C828        C  0.51524358  0.77213525  0.77251405    -0.02700
C829        C  0.45477943  0.69201482  0.76117842     0.36500
C830        C  0.53762477  0.80037688  0.80823060     0.40200
C831        C  0.45656216  0.69201668  0.81012595     0.39300
C832        C  0.53479839  0.79929983  0.75949041     0.36200
C833        C  0.45569892  0.75830997  0.73477835     0.36900
C834        C  0.53419232  0.73129665  0.68606021     0.40100
N835        N  0.44005981  0.67016390  0.81996655    -0.37900
N836        N  0.43775846  0.67042509  0.75139582    -0.39500
N837        N  0.55463987  0.82307239  0.81671537    -0.37300
N838        N  0.55034971  0.82092729  0.74905642    -0.39600
N839        N  0.54948392  0.72587117  0.74520395    -0.39400
N840        N  0.55018015  0.72577301  0.67642388    -0.37000
N841        N  0.44098491  0.76555213  0.67581755    -0.38100
N842        N  0.43946703  0.76319153  0.74474470    -0.39800
C843        C  0.54206601  0.85602542  0.60869679    -0.04700
C844        C  0.52748204  0.85529537  0.58800963     0.09500
C845        C  0.50430358  0.82746208  0.57948834    -0.02100
C846        C  0.49542170  0.80053075  0.59176402    -0.00300
C847        C  0.51013119  0.80117252  0.61249600    -0.04000
C848        C  0.53388470  0.82914181  0.62063200     0.03100
C849        C  0.53693910  0.88425251  0.57555126     0.09900
C850        C  0.48969336  0.82664975  0.55804451     0.35800
C851        C  0.55116362  0.83026004  0.64059519     0.39200
C852        C  0.55987512  0.89523487  0.55881944    -0.04300
C853        C  0.57467068  0.92574921  0.55196602     0.02800
C854        C  0.56635479  0.94536019  0.56155014    -0.03900
C855        C  0.54045226  0.93308297  0.57562599    -0.00100
C856        C  0.52600819  0.90267872  0.58279872    -0.02700
C857        C  0.56941287  0.87558660  0.54972273     0.36500
C858        C  0.52960870  0.95187092  0.58410838     0.40200
C859        C  0.60004038  0.93767845  0.53633847     0.39300
C860        C  0.50112595  0.89079555  0.59890268     0.36200
C861        C  0.56576012  0.88464960  0.61766415     0.36900
C862        C  0.47072107  0.77226365  0.58320638     0.40100
N863        N  0.62038412  0.94738424  0.52395830    -0.37900
N864        N  0.57690557  0.85985267  0.54234222    -0.39500
N865        N  0.51977365  0.96582382  0.59101221    -0.37300
N866        N  0.48134909  0.88127908  0.61181611    -0.39600
N867        N  0.47819407  0.82608703  0.54086308    -0.39400
N868        N  0.45098456  0.74973991  0.57634643    -0.37000
N869        N  0.56505848  0.83106237  0.65640855    -0.38100
N870        N  0.58452760  0.90752074  0.62484259    -0.39800
C871        C  0.48866165  0.62171098  0.55210746    -0.04700
C872        C  0.50649965  0.63445324  0.57186814     0.09500
C873        C  0.52606144  0.62483351  0.57908349    -0.02100
C874        C  0.52696646  0.60172252  0.56709613    -0.00300
C875        C  0.50806456  0.58795801  0.54792441    -0.04000
C876        C  0.48937625  0.59852454  0.54018277     0.03100
C877        C  0.50428234  0.65771087  0.58535687     0.09900
C878        C  0.54488355  0.63848163  0.59911077     0.35800
C879        C  0.47116522  0.58584633  0.51967196     0.39200
C880        C  0.48288889  0.64886621  0.60313922    -0.04300
C881        C  0.48078696  0.67073829  0.61599246     0.02800
C882        C  0.50011781  0.70178266  0.61107658    -0.03900
C883        C  0.52176353  0.71045699  0.59326123    -0.00100
C884        C  0.52361027  0.68848485  0.58040721    -0.02700
C885        C  0.46288393  0.61708950  0.60802906     0.36500
C886        C  0.54307000  0.74202990  0.58857840     0.40200
C887        C  0.45817517  0.66104092  0.63387254     0.39300
C888        C  0.54548109  0.69747800  0.56200976     0.36200
C889        C  0.46946040  0.63242751  0.54411698     0.36900
C890        C  0.54644439  0.59134488  0.57507202     0.40100
N891        N  0.44014151  0.65313473  0.64816369    -0.37900
N892        N  0.44699201  0.59169911  0.61178429    -0.39500
N893        N  0.56006971  0.76720700  0.58484228    -0.37300
N894        N  0.56286839  0.70458228  0.54730440    -0.39600
N895        N  0.55986064  0.64946709  0.61510131    -0.39400
N896        N  0.56201526  0.58309069  0.58143050    -0.37000
N897        N  0.45669168  0.57566333  0.50332401    -0.38100
N898        N  0.45418582  0.64099647  0.53767491    -0.39800
C899        C  0.64243221  0.52242351  0.55723314    -0.04700
C900        C  0.63667826  0.49705995  0.57024630     0.09500
C901        C  0.60731096  0.47180575  0.57105505    -0.02100
C902        C  0.58354342  0.47215592  0.55962237    -0.00300
C903        C  0.58870811  0.49812207  0.54717439    -0.04000
C904        C  0.61870765  0.52319417  0.54596052     0.03100
C905        C  0.66138374  0.49686139  0.58351597     0.09900
C906        C  0.60164107  0.44511602  0.58355865     0.35800
C907        C  0.62576606  0.54969783  0.53263421     0.39200
C908        C  0.66877718  0.50919404  0.60581597    -0.04300
C909        C  0.69050042  0.50726147  0.61905987     0.02800
C910        C  0.70506730  0.49265385  0.61017386    -0.03900
C911        C  0.69769219  0.48058216  0.58756664    -0.00100
C912        C  0.67623875  0.48299175  0.57432149    -0.02700
C913        C  0.65389926  0.52397120  0.61513145     0.36500
C914        C  0.71122546  0.46462177  0.57799585     0.40200
C915        C  0.69818856  0.52110952  0.64162863     0.39300
C916        C  0.66930474  0.47114033  0.55110500     0.36200
C917        C  0.67310879  0.54745575  0.55495225     0.36900
C918        C  0.55383467  0.44538544  0.56092149     0.40100
N919        N  0.70419648  0.53210233  0.65965236    -0.37900
N920        N  0.64207103  0.53583025  0.62249422    -0.39500
N921        N  0.72194580  0.45187741  0.57024984    -0.37300
N922        N  0.66379931  0.46182545  0.53254666    -0.39600
N923        N  0.59720846  0.42379484  0.59338699    -0.39400
N924        N  0.53026741  0.42380923  0.56167486    -0.37000
N925        N  0.63152486  0.57096786  0.52211032    -0.38100
N926        N  0.69764638  0.56723622  0.55297656    -0.39800
C927        C  0.11119392  0.45495255  0.06144108    -0.04700
C928        C  0.12128619  0.47695285  0.07881768     0.09500
C929        C  0.10346316  0.48906361  0.08487366    -0.02100
C930        C  0.07376612  0.47580815  0.07643469    -0.00300
C931        C  0.06198273  0.45049447  0.06180645    -0.04000
C932        C  0.08170586  0.44196254  0.05280031     0.03100
C933        C  0.14798502  0.48352981  0.09321061     0.09900
C934        C  0.11509482  0.51378968  0.10101983     0.35800
C935        C  0.07058250  0.41771664  0.03620034     0.39200
C936        C  0.17716453  0.50692949  0.08735072    -0.04300
C937        C  0.20213278  0.51173212  0.10051830     0.02800
C938        C  0.19812786  0.49303203  0.11967812    -0.03900
C939        C  0.16863843  0.47026794  0.12597542    -0.00100
C940        C  0.14380868  0.46539539  0.11266927    -0.02700
C941        C  0.18143228  0.52579100  0.06757373     0.36500
C942        C  0.16370863  0.45105079  0.14569175     0.40200
C943        C  0.23189381  0.53651882  0.09467148     0.39300
C944        C  0.11382481  0.44103070  0.11860832     0.36200
C945        C  0.13039151  0.44411828  0.05378833     0.36900
C946        C  0.05452310  0.48629895  0.08462215     0.40100
N947        N  0.25564568  0.55635367  0.09008371    -0.37900
N948        N  0.18476796  0.54079096  0.05175980    -0.39500
N949        N  0.15973223  0.43582923  0.16149885    -0.37300
N950        N  0.08990555  0.42152239  0.12320539    -0.39600
N951        N  0.12464759  0.53360837  0.11386455    -0.39400
N952        N  0.03929562  0.49488182  0.09110350    -0.37000
N953        N  0.06167717  0.39836846  0.02295728    -0.38100
N954        N  0.14578954  0.43553601  0.04773346    -0.39800
C955        C  0.44953332  0.10895419  0.05920492    -0.04700
C956        C  0.47164114  0.11916354  0.07652341     0.09500
C957        C  0.48415569  0.10157067  0.08230791    -0.02100
C958        C  0.47178645  0.07227186  0.07321039    -0.00300
C959        C  0.44618081  0.06011175  0.05889079    -0.04000
C960        C  0.43681865  0.07950970  0.05045458     0.03100
C961        C  0.47840950  0.14600969  0.09086405     0.09900
C962        C  0.50806641  0.11270733  0.09917178     0.35800
C963        C  0.41172585  0.06794581  0.03461240     0.39200
C964        C  0.46586126  0.14157845  0.11308299    -0.04300
C965        C  0.47041620  0.16631655  0.12638412     0.02800
C966        C  0.48722251  0.19611288  0.11743208    -0.03900
C967        C  0.50041574  0.20036831  0.09523592    -0.00100
C968        C  0.49603490  0.17547162  0.08215249    -0.02700
C969        C  0.44743879  0.11119567  0.12209047     0.36500
C970        C  0.51917599  0.23030751  0.08571224     0.40200
C971        C  0.45687188  0.16037389  0.14906463     0.39300
C972        C  0.50951874  0.18006651  0.05952876     0.36200
C973        C  0.43806971  0.12777936  0.05182998     0.36900
C974        C  0.48400453  0.05406681  0.08028129     0.40100
N975        N  0.44609852  0.15496585  0.16718576    -0.37900
N976        N  0.43280643  0.08698886  0.12925413    -0.39500
N977        N  0.53415047  0.25393097  0.07765726    -0.37300
N978        N  0.52010483  0.18362114  0.04142806    -0.39600
N979        N  0.52686577  0.12151538  0.11286022    -0.39400
N980        N  0.49481010  0.04050782  0.08607543    -0.37000
N981        N  0.39168617  0.05871444  0.02199998    -0.38100
N982        N  0.42908809  0.14292469  0.04589244    -0.39800
C983        C  0.33506295  0.83126288  0.08647596    -0.04700
C984        C  0.33991468  0.85925028  0.09385303     0.09500
C985        C  0.32460054  0.86056672  0.11344461    -0.02100
C986        C  0.30348351  0.83394728  0.12493432    -0.00300
C987        C  0.29799166  0.80571705  0.11727884    -0.04000
C988        C  0.31408844  0.80454279  0.09808435     0.03100
C989        C  0.36041081  0.88762120  0.08089111     0.09900
C990        C  0.33061029  0.88948563  0.12179215     0.35800
C991        C  0.30949049  0.77590562  0.09048214     0.39200
C992        C  0.34994299  0.89519044  0.06111734    -0.04300
C993        C  0.36550619  0.92506437  0.05280688     0.02800
C994        C  0.39180222  0.94723864  0.06398020    -0.03900
C995        C  0.40439766  0.93856714  0.08163397    -0.00100
C996        C  0.38854339  0.90887626  0.09025739    -0.02700
C997        C  0.32210280  0.87278589  0.05034493     0.36500
C998        C  0.43240927  0.96066562  0.09228724     0.40200
C999        C  0.35318806  0.93367248  0.03398935     0.39300
C1000       C  0.40045401  0.90043665  0.10946018     0.36200
C1001       C  0.35205873  0.83012767  0.06717065     0.36900
C1002       C  0.28633788  0.83564751  0.14392256     0.40100
N1003       N  0.34335921  0.94064556  0.01904572    -0.37900
N1004       N  0.29997593  0.85484630  0.04166389    -0.39500
N1005       N  0.45480868  0.97783758  0.10102607    -0.37300
N1006       N  0.40994423  0.89365401  0.12475656    -0.39600
N1007       N  0.33573758  0.91260123  0.12856085    -0.39400
N1008       N  0.27258037  0.83701201  0.15899040    -0.37000
N1009       N  0.30583339  0.75305943  0.08439854    -0.38100
N1010       N  0.36574337  0.82929287  0.05182070    -0.39800
C1011       C  0.65461433  0.48952890  0.10076578    -0.04700
C1012       C  0.66449405  0.51822547  0.09129634     0.09500
C1013       C  0.69527535  0.54076001  0.09262443    -0.02100
C1014       C  0.71570749  0.53498922  0.10408929    -0.00300
C1015       C  0.70550529  0.50676863  0.11460663    -0.04000
C1016       C  0.67495161  0.48389168  0.11260036     0.03100
C1017       C  0.64227448  0.52607050  0.08233937     0.09900
C1018       C  0.70577870  0.57022988  0.08271583     0.35800
C1019       C  0.66447870  0.45450594  0.12262554     0.39200
C1020       C  0.62706658  0.53418346  0.09805873    -0.04300
C1021       C  0.61172754  0.54826530  0.09018342     0.02800
C1022       C  0.61044421  0.55334415  0.06638832    -0.03900
C1023       C  0.62236257  0.54172883  0.05053829    -0.00100
C1024       C  0.63865629  0.52851923  0.05848613    -0.02700
C1025       C  0.62884812  0.52975758  0.12252960     0.36500
C1026       C  0.61920495  0.54484473  0.02609878     0.40200
C1027       C  0.59997557  0.56035269  0.10679839     0.39300
C1028       C  0.65292774  0.51877900  0.04220862     0.36200
C1029       C  0.62343743  0.46591240  0.09829700     0.36900
C1030       C  0.74712335  0.55848074  0.10579943     0.40100
N1031       N  0.59118258  0.57038976  0.12019087    -0.37900
N1032       N  0.63016565  0.52599699  0.14201685    -0.39500
N1033       N  0.61647980  0.54706600  0.00656762    -0.37300
N1034       N  0.66440359  0.51108195  0.02920684    -0.39600
N1035       N  0.71414546  0.59371923  0.07476553    -0.39400
N1036       N  0.77221193  0.57711529  0.10722477    -0.37000
N1037       N  0.65610689  0.43103255  0.13060908    -0.38100
N1038       N  0.59854890  0.44714142  0.09605297    -0.39800
C1039       C  0.85234657  0.31543138  0.09937889    -0.04700
C1040       C  0.85788943  0.34341043  0.09095787     0.09500
C1041       C  0.83517671  0.35045941  0.09256300    -0.02100
C1042       C  0.80722477  0.32976860  0.10283371    -0.00300
C1043       C  0.80197099  0.30203340  0.11154755    -0.04000
C1044       C  0.82456032  0.29489849  0.10966462     0.03100
C1045       C  0.88838012  0.36558674  0.08150212     0.09900
C1046       C  0.84073427  0.37903357  0.08375187     0.35800
C1047       C  0.81938588  0.26658290  0.11881565     0.39200
C1048       C  0.89697034  0.36091182  0.05960283    -0.04300
C1049       C  0.92763924  0.37591707  0.05343625     0.02800
C1050       C  0.94971024  0.39603785  0.06897447    -0.03900
C1051       C  0.94081949  0.40318495  0.08976007    -0.00100
C1052       C  0.91019858  0.38807249  0.09598024    -0.02700
C1053       C  0.87433589  0.33919001  0.04409700     0.36500
C1054       C  0.96346025  0.42425855  0.10563136     0.40200
C1055       C  0.93671168  0.36888834  0.03194521     0.39300
C1056       C  0.90133685  0.39413337  0.11799006     0.36200
C1057       C  0.87555999  0.30799236  0.09781621     0.36900
C1058       C  0.78392717  0.33701569  0.10453242     0.40100
N1059       N  0.94404933  0.36323660  0.01484998    -0.37900
N1060       N  0.85620272  0.32184137  0.03175632    -0.39500
N1061       N  0.98151701  0.44100071  0.11831470    -0.37300
N1062       N  0.89423511  0.39904035  0.13551176    -0.39600
N1063       N  0.84529954  0.40188599  0.07671142    -0.39400
N1064       N  0.76531981  0.34280425  0.10584293    -0.37000
N1065       N  0.81516278  0.24400496  0.12619077    -0.38100
N1066       N  0.89409220  0.30210322  0.09647520    -0.39800
C1067       C  0.50038311  0.66431768  0.08731323    -0.04700
C1068       C  0.52966386  0.66912093  0.08669568     0.09500
C1069       C  0.55342595  0.69500937  0.09736598    -0.02100
C1070       C  0.54794800  0.71578362  0.10854311    -0.00300
C1071       C  0.51850605  0.71039223  0.10990337    -0.04000
C1072       C  0.49475737  0.68466548  0.09914563     0.03100
C1073       C  0.53592966  0.64698048  0.07527763     0.09900
C1074       C  0.58359138  0.70013981  0.09700447     0.35800
C1075       C  0.46441061  0.67881793  0.10065406     0.39200
C1076       C  0.55249291  0.65477529  0.05456608    -0.04300
C1077       C  0.56506948  0.63790919  0.04694238     0.02800
C1078       C  0.56087252  0.61290436  0.05977692    -0.03900
C1079       C  0.54081643  0.60268215  0.07865647    -0.00100
C1080       C  0.52864211  0.61987943  0.08654188    -0.02700
C1081       C  0.55797702  0.68116994  0.04181830     0.36500
C1082       C  0.53452541  0.57583928  0.09112687     0.40200
C1083       C  0.58363398  0.64706965  0.02642615     0.39300
C1084       C  0.51035312  0.61084069  0.10719704     0.36200
C1085       C  0.47610945  0.63852346  0.07566549     0.36900
C1086       C  0.57279995  0.74318166  0.11811492     0.40100
N1087       N  0.59834037  0.65419437  0.01000837    -0.37900
N1088       N  0.56237600  0.70226080  0.03166386    -0.39500
N1089       N  0.52910291  0.55428902  0.10110100    -0.37300
N1090       N  0.49571056  0.60365965  0.12365319    -0.39600
N1091       N  0.60761656  0.70415724  0.09664484    -0.39400
N1092       N  0.59271823  0.76517346  0.12551167    -0.37000
N1093       N  0.44014400  0.67402316  0.10196335    -0.38100
N1094       N  0.45671126  0.61796693  0.06634261    -0.39800
C1095       C  0.48529913  0.26249782  0.27815673    -0.04700
C1096       C  0.49515336  0.24557254  0.26636795     0.09500
C1097       C  0.50502059  0.22912690  0.27889586    -0.02100
C1098       C  0.50560739  0.22996966  0.30319532    -0.00300
C1099       C  0.49500537  0.24642261  0.31540881    -0.04000
C1100       C  0.48463341  0.26256250  0.30244395     0.03100
C1101       C  0.49476641  0.24490312  0.24060219     0.09900
C1102       C  0.51435510  0.21103900  0.26663852     0.35800
C1103       C  0.47218692  0.27858810  0.31368963     0.39200
C1104       C  0.52055461  0.26553936  0.22800266    -0.04300
C1105       C  0.51976540  0.26571435  0.20373497     0.02800
C1106       C  0.49320054  0.24519933  0.19194558    -0.03900
C1107       C  0.46724751  0.22494067  0.20456901    -0.00100
C1108       C  0.46815689  0.22451807  0.22882242    -0.02700
C1109       C  0.54779092  0.28676723  0.24008292     0.36500
C1110       C  0.43916321  0.20572677  0.19267607     0.40200
C1111       C  0.54622072  0.28715239  0.19084940     0.39300
C1112       C  0.44164639  0.20331837  0.24175998     0.36200
C1113       C  0.47559345  0.27978053  0.26509100     0.36900
C1114       C  0.51794510  0.21431754  0.31526094     0.40100
N1115       N  0.56722001  0.30430675  0.18049042    -0.37900
N1116       N  0.56950246  0.30369411  0.24976021    -0.39500
N1117       N  0.41662172  0.19064332  0.18326192    -0.37300
N1118       N  0.42056943  0.18640965  0.25215904    -0.39600
N1119       N  0.52161996  0.19648375  0.25685278    -0.39400
N1120       N  0.52777719  0.20174130  0.32475285    -0.37000
N1121       N  0.46221011  0.29143537  0.32248201    -0.38100
N1122       N  0.46795215  0.29356444  0.25458222    -0.39800
C1123       C  0.47107977  0.37580649  0.41995135    -0.04700
C1124       C  0.48998954  0.36486255  0.42588573     0.09500
C1125       C  0.50987587  0.37760290  0.44459950    -0.02100
C1126       C  0.51127485  0.40144493  0.45712739    -0.00300
C1127       C  0.49223006  0.41242269  0.45136886    -0.04000
C1128       C  0.47222819  0.39957874  0.43259773     0.03100
C1129       C  0.48943279  0.34002101  0.41243819     0.09900
C1130       C  0.52865336  0.36575876  0.45117418     0.35800
C1131       C  0.45205993  0.41002655  0.42677343     0.39200
C1132       C  0.50619252  0.34661166  0.39196073    -0.04300
C1133       C  0.50849484  0.32391294  0.38057695     0.02800
C1134       C  0.49282925  0.29385678  0.38902329    -0.03900
C1135       C  0.47519242  0.28727386  0.40928579    -0.00100
C1136       C  0.47418678  0.31039991  0.42116435    -0.02700
C1137       C  0.52177075  0.37711449  0.38295178     0.36500
C1138       C  0.45730592  0.25665185  0.41783226     0.40200
C1139       C  0.52831348  0.33214986  0.36083556     0.39300
C1140       C  0.45801901  0.30393988  0.44278777     0.36200
C1141       C  0.44987359  0.36201167  0.40121795     0.36900
C1142       C  0.53305452  0.41517704  0.47557649     0.40100
N1143       N  0.54425942  0.33886952  0.34516377    -0.37900
N1144       N  0.53404602  0.40143062  0.37576691    -0.39500
N1145       N  0.44294915  0.23226807  0.42472255    -0.37300
N1146       N  0.44551374  0.29899900  0.46019119    -0.39600
N1147       N  0.54332607  0.35601053  0.45651455    -0.39400
N1148       N  0.55042255  0.42611079  0.49027032    -0.37000
N1149       N  0.43600285  0.41841744  0.42217708    -0.38100
N1150       N  0.43281923  0.35094778  0.38634829    -0.39800
C1151       C  0.22944390  0.47751910  0.28082042    -0.04700
C1152       C  0.25371030  0.50017439  0.26797425     0.14300
C1153       C  0.27847486  0.52382803  0.27964163    -0.02100
C1154       C  0.27872910  0.52516864  0.30394909    -0.00300
C1155       C  0.25397082  0.50306128  0.31682822    -0.04000
C1156       C  0.22952465  0.47894542  0.30511455     0.03100
C1157       C  0.25273361  0.49958556  0.24209241     0.09900
C1158       C  0.30345245  0.54714076  0.26652289     0.35800
C1159       C  0.20475405  0.45509006  0.31806420     0.39200
C1160       C  0.23842659  0.51234139  0.23018122    -0.04300
C1161       C  0.23742882  0.51200454  0.20585364     0.02800
C1162       C  0.25036342  0.49829098  0.19296328    -0.03900
C1163       C  0.26438962  0.48510762  0.20520507    -0.00100
C1164       C  0.26586510  0.48617299  0.22953585    -0.02700
C1165       C  0.22484296  0.52608368  0.24313220     0.36500
C1166       C  0.27646547  0.46934373  0.19305533     0.40200
C1167       C  0.22368660  0.52666066  0.19433991     0.39300
C1168       C  0.28090650  0.47336254  0.24179660     0.36200
C1169       C  0.20429788  0.45278044  0.26892710     0.36900
C1170       C  0.30410633  0.54989806  0.31565505     0.40100
N1171       N  0.21261204  0.53832461  0.18527665    -0.37900
N1172       N  0.21400403  0.53696853  0.25354206    -0.39500
N1173       N  0.28610646  0.45670711  0.18345876    -0.37300
N1174       N  0.29300657  0.46328431  0.25161829    -0.39600
N1175       N  0.32332739  0.56574400  0.25600004    -0.39400
N1176       N  0.32436281  0.56957369  0.32503774    -0.37000
N1177       N  0.18501030  0.43595926  0.32834471    -0.38100
N1178       N  0.18428629  0.43307733  0.25936217    -0.39800
C1179       C  0.33747741  0.52806222  0.42220896    -0.04700
C1180       C  0.34073549  0.50278760  0.42024785     0.09500
C1181       C  0.32175496  0.47929580  0.40508804    -0.02100
C1182       C  0.29986118  0.48108103  0.39199683    -0.00300
C1183       C  0.29724646  0.50677152  0.39339004    -0.04000
C1184       C  0.31610302  0.53022505  0.40863587     0.03100
C1185       C  0.36480067  0.50131464  0.43353996     0.09900
C1186       C  0.32501335  0.45337094  0.40274625     0.35800
C1187       C  0.31425535  0.55708042  0.40977526     0.39200
C1188       C  0.35736088  0.48182123  0.45265096    -0.04300
C1189       C  0.37993892  0.47959702  0.46444588     0.02800
C1190       C  0.41044415  0.49763273  0.45776634    -0.03900
C1191       C  0.41780414  0.51782997  0.43908558    -0.00100
C1192       C  0.39516483  0.51924438  0.42680141    -0.02700
C1193       C  0.32641234  0.46428114  0.46033810     0.36500
C1194       C  0.44893694  0.53834963  0.43316106     0.40200
C1195       C  0.37153004  0.45801386  0.48300371     0.39300
C1196       C  0.40316513  0.53927620  0.40715407     0.36200
C1197       C  0.35621685  0.55186590  0.43823264     0.36900
C1198       C  0.27935459  0.45601469  0.37754703     0.40100
N1199       N  0.36480615  0.44067517  0.49774323    -0.37900
N1200       N  0.30171918  0.45038808  0.46650265    -0.39500
N1201       N  0.47393516  0.55473996  0.42880328    -0.37300
N1202       N  0.40955779  0.55529452  0.39151425    -0.39600
N1203       N  0.32760867  0.43267677  0.40088742    -0.39400
N1204       N  0.26278748  0.43603328  0.36610000    -0.37000
N1205       N  0.31293381  0.57860521  0.41058944    -0.38100
N1206       N  0.37121960  0.57078973  0.45105245    -0.39800
C1207       C  0.48653913  0.09949277  0.41707916    -0.04700
C1208       C  0.47735941  0.11847961  0.42640450     0.09500
C1209       C  0.45865363  0.10899146  0.44600083    -0.02100
C1210       C  0.44577739  0.07917299  0.45409061    -0.00300
C1211       C  0.45102567  0.05861984  0.44229573    -0.04000
C1212       C  0.47331098  0.06951295  0.42497646     0.03100
C1213       C  0.48254644  0.14561794  0.41325189     0.09900
C1214       C  0.45073982  0.12916829  0.45659595     0.35800
C1215       C  0.48040433  0.04915283  0.41370286     0.39200
C1216       C  0.46254709  0.14188360  0.39537042    -0.04300
C1217       C  0.46568444  0.16712456  0.38363049     0.02800
C1218       C  0.48902388  0.19647483  0.38957355    -0.03900
C1219       C  0.50926051  0.20016264  0.40734373    -0.00100
C1220       C  0.50608875  0.17476431  0.41904816    -0.02700
C1221       C  0.43846577  0.11187099  0.38917266     0.36500
C1222       C  0.53384043  0.23000039  0.41320003     0.40200
C1223       C  0.44410328  0.16281157  0.36596842     0.39300
C1224       C  0.52719556  0.17845243  0.43686191     0.36200
C1225       C  0.50784628  0.11017271  0.39820614     0.36900
C1226       C  0.42530147  0.06887522  0.47349609     0.40100
N1227       N  0.42690411  0.15939761  0.35189110    -0.37900
N1228       N  0.41936502  0.08790400  0.38423624    -0.39500
N1229       N  0.55345326  0.25382633  0.41786690    -0.37300
N1230       N  0.54408128  0.18128042  0.45102014    -0.39600
N1231       N  0.44446637  0.14535324  0.46496245    -0.39400
N1232       N  0.40905534  0.06069676  0.48904658    -0.37000
N1233       N  0.48611494  0.03289664  0.40474208    -0.38100
N1234       N  0.52490487  0.11873714  0.38317441    -0.39800
C1235       C  0.26580736  0.77655292  0.27455259    -0.04700
C1236       C  0.25454210  0.74887857  0.26307917     0.09500
C1237       C  0.24575211  0.72254146  0.27590924    -0.02100
C1238       C  0.24785975  0.72373531  0.30014918    -0.00300
C1239       C  0.25828554  0.75133177  0.31189299    -0.04000
C1240       C  0.26761672  0.77785583  0.29881242     0.03100
C1241       C  0.25292325  0.74773202  0.23732525     0.09900
C1242       C  0.23479108  0.69420651  0.26403132     0.35800
C1243       C  0.27856546  0.80656009  0.31010823     0.39200
C1244       C  0.27780650  0.75222098  0.22437730    -0.04300
C1245       C  0.27698025  0.75254375  0.20012379     0.02800
C1246       C  0.25121208  0.74845556  0.18856519    -0.03900
C1247       C  0.22578860  0.74270711  0.20160361    -0.00100
C1248       C  0.22674615  0.74250609  0.22589765    -0.02700
C1249       C  0.30427437  0.75642936  0.23613120     0.36500
C1250       C  0.19884072  0.73770105  0.19013385     0.40200
C1251       C  0.30231684  0.75598456  0.18707368     0.39300
C1252       C  0.20088595  0.73716915  0.23922397     0.36200
C1253       C  0.27561481  0.80377545  0.26125032     0.36900
C1254       C  0.24047099  0.69665198  0.31282986     0.40100
N1255       N  0.32244394  0.75856642  0.17663986    -0.37900
N1256       N  0.32530331  0.75969450  0.24559449    -0.39500
N1257       N  0.17727261  0.73352153  0.18098482    -0.37300
N1258       N  0.18025588  0.73288447  0.24987567    -0.39600
N1259       N  0.22607029  0.67164998  0.25449199    -0.39400
N1260       N  0.23469953  0.67506235  0.32290792    -0.37000
N1261       N  0.28751910  0.82959448  0.31896030    -0.38100
N1262       N  0.28350013  0.82545230  0.25058074    -0.39800
C1263       C  0.38718757  0.91114998  0.40152778    -0.04700
C1264       C  0.36907156  0.88752137  0.41688022     0.09500
C1265       C  0.36919979  0.89373681  0.44051748    -0.02100
C1266       C  0.38417526  0.92386874  0.44821136    -0.00300
C1267       C  0.39909577  0.94767136  0.43226384    -0.04000
C1268       C  0.40206138  0.94118315  0.40915894     0.03100
C1269       C  0.34572503  0.85772034  0.40727456     0.09900
C1270       C  0.35227121  0.86925342  0.45658502     0.35800
C1271       C  0.41793565  0.96546020  0.39267699     0.39200
C1272       C  0.35055028  0.83346249  0.40589693    -0.04300
C1273       C  0.32908859  0.80642516  0.39499017     0.02800
C1274       C  0.30324451  0.80396896  0.38490111    -0.03900
C1275       C  0.29822304  0.82805688  0.38664608    -0.00100
C1276       C  0.31920797  0.85469506  0.39801120    -0.02700
C1277       C  0.37780340  0.83661863  0.41530428     0.36500
C1278       C  0.27145114  0.82545295  0.37663834     0.40200
C1279       C  0.33359585  0.78118585  0.39401826     0.39300
C1280       C  0.31376002  0.87930281  0.39997256     0.36200
C1281       C  0.38829875  0.90458316  0.37742345     0.36900
C1282       C  0.38248866  0.93046339  0.47218108     0.40100
N1283       N  0.33707277  0.76095120  0.39332067    -0.37900
N1284       N  0.39960771  0.83922355  0.42280517    -0.39500
N1285       N  0.25013114  0.82337925  0.36860434    -0.37300
N1286       N  0.30956930  0.89901027  0.40161824    -0.39600
N1287       N  0.33886264  0.84971129  0.46945295    -0.39400
N1288       N  0.38137549  0.93581531  0.49133546    -0.37000
N1289       N  0.43022075  0.98459192  0.37929879    -0.38100
N1290       N  0.38898210  0.89921659  0.35820660    -0.39800
C1291       C  0.72620605  0.49535222  0.27631527    -0.04700
C1292       C  0.75309662  0.50891822  0.26349021     0.09500
C1293       C  0.78080948  0.52492254  0.27512476    -0.02100
C1294       C  0.78171112  0.52684983  0.29944012    -0.00300
C1295       C  0.75472889  0.51260920  0.31255159    -0.04000
C1296       C  0.72689368  0.49735332  0.30060174     0.03100
C1297       C  0.75208884  0.50639468  0.23764718     0.09900
C1298       C  0.80849980  0.53943953  0.26194835     0.35800
C1299       C  0.69865822  0.48313745  0.31307664     0.39200
C1300       C  0.75444817  0.52991824  0.22383099    -0.04300
C1301       C  0.75273097  0.52722346  0.19958811     0.02800
C1302       C  0.74840851  0.50084096  0.18889363    -0.03900
C1303       C  0.74636184  0.47743452  0.20273741    -0.00100
C1304       C  0.74822891  0.48022687  0.22697891    -0.02700
C1305       C  0.75873469  0.55697664  0.23464422     0.36500
C1306       C  0.74160890  0.45011566  0.19206471     0.40200
C1307       C  0.75649614  0.55210240  0.18559833     0.39300
C1308       C  0.74624043  0.45617895  0.24104503     0.36200
C1309       C  0.69765808  0.47903722  0.26438614     0.36900
C1310       C  0.81057464  0.54456365  0.31073534     0.40100
N1311       N  0.75962406  0.57196238  0.17438437    -0.37900
N1312       N  0.76222727  0.57856840  0.24333350    -0.39500
N1313       N  0.73774717  0.42828543  0.18354972    -0.37300
N1314       N  0.74468081  0.43705095  0.25233837    -0.39600
N1315       N  0.83054994  0.55106461  0.25138902    -0.39400
N1316       N  0.83364190  0.55874947  0.31967665    -0.37000
N1317       N  0.67607293  0.47203398  0.32293868    -0.38100
N1318       N  0.67491948  0.46592660  0.25484326    -0.39800
C1319       C  0.66220855  0.55570616  0.44461153    -0.04700
C1320       C  0.64997215  0.53218557  0.42839070     0.09500
C1321       C  0.61929158  0.51818832  0.42264111    -0.02100
C1322       C  0.60239443  0.53096184  0.42987038    -0.00300
C1323       C  0.61609495  0.55744629  0.44331233    -0.04000
C1324       C  0.64512065  0.56797697  0.45235370     0.03100
C1325       C  0.67050348  0.52629369  0.41423462     0.09900
C1326       C  0.60588225  0.49202848  0.40780415     0.35800
C1327       C  0.65859580  0.59370168  0.46766367     0.39200
C1328       C  0.67822353  0.50523688  0.42126804    -0.04300
C1329       C  0.69869869  0.50110189  0.40813129     0.02800
C1330       C  0.71156924  0.51796689  0.38763675    -0.03900
C1331       C  0.70307386  0.53860152  0.38042836    -0.00100
C1332       C  0.68281769  0.54276250  0.39370730    -0.02700
C1333       C  0.66491855  0.48777546  0.44202522     0.36500
C1334       C  0.71582753  0.55651729  0.35974992     0.40200
C1335       C  0.70581188  0.47885561  0.41555064     0.39300
C1336       C  0.67487458  0.56449107  0.38643008     0.36200
C1337       C  0.69324021  0.56897243  0.45170818     0.36900
C1338       C  0.57222789  0.51884911  0.42114531     0.40100
N1339       N  0.71148166  0.46112103  0.42153882    -0.37900
N1340       N  0.65416908  0.47381756  0.45856392    -0.39500
N1341       N  0.72582962  0.57075446  0.34321262    -0.37300
N1342       N  0.66848505  0.58179845  0.38073869    -0.39600
N1343       N  0.59518966  0.47105067  0.39605695    -0.39400
N1344       N  0.54818358  0.50884919  0.41395523    -0.37000
N1345       N  0.66942003  0.61431119  0.47978983    -0.38100
N1346       N  0.71803848  0.57956891  0.45727985    -0.39800
C1347       C  0.74820276  0.28738759  0.21919992    -0.04700
C1348       C  0.74584473  0.26371077  0.23277137     0.09500
C1349       C  0.74325447  0.23821247  0.22190748    -0.02100
C1350       C  0.74360805  0.23662252  0.19765593    -0.00300
C1351       C  0.74687528  0.26073417  0.18398921    -0.04000
C1352       C  0.74910672  0.28611844  0.19493531     0.03100
C1353       C  0.74715114  0.26593689  0.25857025     0.09900
C1354       C  0.74035611  0.21361272  0.23579262     0.35800
C1355       C  0.75178209  0.31076568  0.18124574     0.39200
C1356       C  0.72092012  0.25671676  0.27153017    -0.04300
C1357       C  0.72192014  0.25693216  0.29585801     0.02800
C1358       C  0.74921315  0.26587649  0.30760958    -0.03900
C1359       C  0.77582822  0.27658974  0.29434977    -0.00100
C1360       C  0.77470632  0.27675850  0.27004125    -0.02700
C1361       C  0.69285842  0.24719174  0.25970939     0.36500
C1362       C  0.80453900  0.28693467  0.30535708     0.40200
C1363       C  0.69487277  0.24904321  0.30858442     0.39300
C1364       C  0.80204552  0.28821476  0.25665316     0.36200
C1365       C  0.74943161  0.31294788  0.23029260     0.36900
C1366       C  0.74172796  0.21057170  0.18684684     0.40100
N1367       N  0.67305169  0.24285505  0.31835477    -0.37900
N1368       N  0.67053534  0.23976171  0.25024120    -0.39500
N1369       N  0.82772169  0.29554374  0.31379022    -0.37300
N1370       N  0.82381330  0.29752393  0.24591150    -0.39600
N1371       N  0.73803125  0.19400151  0.24689641    -0.39400
N1372       N  0.74020189  0.18979238  0.17820176    -0.37000
N1373       N  0.75401411  0.33046628  0.17031235    -0.38100
N1374       N  0.75013178  0.33318291  0.23919958    -0.39800
C1375       C  0.49207714  0.72652790  0.27122016    -0.04700
C1376       C  0.51105398  0.75331498  0.25892912     0.09500
C1377       C  0.53028882  0.77989861  0.27122758    -0.02100
C1378       C  0.53078087  0.77968623  0.29558900    -0.00300
C1379       C  0.51183370  0.75279414  0.30802992    -0.04000
C1380       C  0.49253384  0.72617570  0.29557273     0.03100
C1381       C  0.51084395  0.75345120  0.23297316     0.09900
C1382       C  0.54945208  0.80760294  0.25869798     0.35800
C1383       C  0.47234530  0.69847313  0.30774703     0.39200
C1384       C  0.48947885  0.75710352  0.22085042    -0.04300
C1385       C  0.48915395  0.75708693  0.19647908     0.02800
C1386       C  0.50993525  0.75279112  0.18380373    -0.03900
C1387       C  0.53115752  0.74879510  0.19616159    -0.00100
C1388       C  0.53179756  0.74953920  0.22051551    -0.02700
C1389       C  0.46756229  0.76059890  0.23360121     0.36500
C1390       C  0.55287124  0.74435253  0.18404783     0.40200
C1391       C  0.46660160  0.76048395  0.18459427     0.39300
C1392       C  0.55420447  0.74637326  0.23287950     0.36200
C1393       C  0.47166086  0.69934577  0.25869496     0.36900
C1394       C  0.55158860  0.80707923  0.30774084     0.40100
N1395       N  0.44862970  0.76328495  0.17516272    -0.37900
N1396       N  0.45002999  0.76322789  0.24385983    -0.39500
N1397       N  0.57020905  0.74048587  0.17473801    -0.37300
N1398       N  0.57217614  0.74400992  0.24273905    -0.39600
N1399       N  0.56464308  0.82968315  0.24863980    -0.39400
N1400       N  0.56821698  0.82895820  0.31740132    -0.37000
N1401       N  0.45626548  0.67635055  0.31745573    -0.38100
N1402       N  0.45525350  0.67775108  0.24864582    -0.39800
C1403       C  0.52428127  0.61482917  0.40642307    -0.04700
C1404       C  0.53061486  0.64137563  0.41796507     0.09500
C1405       C  0.54624885  0.64854386  0.43911386    -0.02100
C1406       C  0.55867310  0.63152005  0.44696400    -0.00300
C1407       C  0.55604749  0.60767322  0.43354964    -0.04000
C1408       C  0.53772294  0.59859447  0.41376357     0.03100
C1409       C  0.52575342  0.66413559  0.40572661     0.09900
C1410       C  0.55140765  0.67464969  0.45197737     0.35800
C1411       C  0.53485374  0.57414617  0.39981333     0.39200
C1412       C  0.50368950  0.67037672  0.41301001    -0.04300
C1413       C  0.49997590  0.69220413  0.40128185     0.02800
C1414       C  0.51791126  0.70760148  0.38179572    -0.03900
C1415       C  0.53992205  0.70115398  0.37456145    -0.00100
C1416       C  0.54388157  0.67975971  0.38648612    -0.02700
C1417       C  0.48451827  0.65396613  0.43237219     0.36500
C1418       C  0.55947631  0.71733755  0.35529190     0.40200
C1419       C  0.47714277  0.69821279  0.40902959     0.39300
C1420       C  0.56701255  0.67397043  0.37901631     0.36200
C1421       C  0.50519158  0.60523202  0.38623363     0.36900
C1422       C  0.57679543  0.64034806  0.46766880     0.40100
N1423       N  0.45897264  0.70304030  0.41530411    -0.37900
N1424       N  0.46930180  0.64086989  0.44786212    -0.39500
N1425       N  0.57506713  0.73020701  0.33991568    -0.37300
N1426       N  0.58529200  0.66913920  0.37305250    -0.39600
N1427       N  0.55539242  0.69536439  0.46237248    -0.39400
N1428       N  0.59137224  0.64732825  0.48412642    -0.37000
N1429       N  0.53266680  0.55477522  0.38856730    -0.38100
N1430       N  0.48976247  0.59751739  0.37023482    -0.39800
C1431       C  0.17025170  0.52283961  0.40133501    -0.04700
C1432       C  0.14708686  0.49329325  0.40693986     0.09500
C1433       C  0.15126579  0.46895774  0.40258510    -0.02100
C1434       C  0.17844069  0.47410322  0.39306674    -0.00300
C1435       C  0.20138794  0.50352014  0.38706799    -0.04000
C1436       C  0.19718188  0.52789025  0.39109600     0.03100
C1437       C  0.11731601  0.48671979  0.41616376     0.09900
C1438       C  0.12708466  0.43839060  0.40729677     0.35800
C1439       C  0.22040803  0.55805113  0.38440259     0.39200
C1440       C  0.09432026  0.48159110  0.40066007    -0.04300
C1441       C  0.06404372  0.46540124  0.40786642     0.02800
C1442       C  0.05656617  0.45394416  0.43055815    -0.03900
C1443       C  0.07978955  0.46244527  0.44675851    -0.00100
C1444       C  0.11016570  0.47931520  0.43962388    -0.02700
C1445       C  0.10166388  0.49079983  0.37681946     0.36500
C1446       C  0.07243508  0.45182372  0.47028777     0.40200
C1447       C  0.04037766  0.45803586  0.39130494     0.39300
C1448       C  0.13409508  0.48752939  0.45606604     0.36200
C1449       C  0.16630719  0.54791755  0.40607984     0.36900
C1450       C  0.18267554  0.44899849  0.38912067     0.40100
N1451       N  0.02157818  0.45204927  0.37799958    -0.37900
N1452       N  0.10754177  0.49815062  0.35779764    -0.39500
N1453       N  0.06660626  0.44340185  0.48909698    -0.37300
N1454       N  0.15325947  0.49434055  0.46919783    -0.39600
N1455       N  0.10761701  0.41407616  0.41095589    -0.39400
N1456       N  0.18617135  0.42904312  0.38602031    -0.37000
N1457       N  0.23891568  0.58208699  0.37892608    -0.38100
N1458       N  0.16328055  0.56799629  0.41000195    -0.39800
C1459       C  0.89383140  0.34532210  0.43756626    -0.04700
C1460       C  0.88504368  0.35795438  0.41998298     0.09500
C1461       C  0.90527503  0.38782115  0.41274491    -0.02100
C1462       C  0.93516813  0.40346401  0.42093869    -0.00300
C1463       C  0.94510293  0.38905323  0.43605735    -0.04000
C1464       C  0.92383369  0.36064592  0.44536118     0.03100
C1465       C  0.85638783  0.33837745  0.40696716     0.09900
C1466       C  0.89592730  0.40170484  0.39568786     0.35800
C1467       C  0.93336220  0.34636345  0.46193037     0.39200
C1468       C  0.83139206  0.34191708  0.40931515    -0.04300
C1469       C  0.80482919  0.32339969  0.39665158     0.02800
C1470       C  0.80296033  0.30096272  0.38187273    -0.03900
C1471       C  0.82761058  0.29690332  0.37999968    -0.00100
C1472       C  0.85440318  0.31591801  0.39206657    -0.02700
C1473       C  0.83299239  0.36447333  0.42485143     0.36500
C1474       C  0.82498993  0.27236688  0.36628353     0.40200
C1475       C  0.77936999  0.32736073  0.39882061     0.39300
C1476       C  0.88010898  0.31247602  0.38901814     0.36200
C1477       C  0.87238877  0.31568423  0.44655699     0.36900
C1478       C  0.95618346  0.43343244  0.41233721     0.40100
N1479       N  0.75902946  0.33050122  0.40052056    -0.37900
N1480       N  0.83437599  0.38257904  0.43719829    -0.39500
N1481       N  0.82273800  0.25260793  0.35551074    -0.37300
N1482       N  0.90062944  0.30976343  0.38660941    -0.39600
N1483       N  0.88838648  0.41280637  0.38215710    -0.39400
N1484       N  0.97275637  0.45748640  0.40559897    -0.37000
N1485       N  0.94097344  0.33497518  0.47514507    -0.38100
N1486       N  0.85524992  0.29200729  0.45366235    -0.39800
C1487       C  0.13751433  0.50865868  0.55172847    -0.04700
C1488       C  0.13016303  0.49301426  0.57288032     0.09500
C1489       C  0.10019601  0.47818949  0.58071682    -0.02100
C1490       C  0.07772437  0.47895148  0.56759689    -0.00300
C1491       C  0.08515901  0.49590113  0.54685726    -0.04000
C1492       C  0.11537309  0.51053599  0.53894019     0.03100
C1493       C  0.15401653  0.49228260  0.58707587     0.09900
C1494       C  0.09250188  0.46212079  0.60246462     0.35800
C1495       C  0.12421221  0.52833996  0.51797719     0.39200
C1496       C  0.16787761  0.51259711  0.60546664    -0.04300
C1497       C  0.19036621  0.51210908  0.61879950     0.02800
C1498       C  0.19882664  0.49074437  0.61424324    -0.03900
C1499       C  0.18427981  0.46987384  0.59612412    -0.00100
C1500       C  0.16240812  0.47100280  0.58242057    -0.02700
C1501       C  0.15902496  0.53419857  0.61056692     0.36500
C1502       C  0.19084322  0.44634138  0.59209125     0.40200
C1503       C  0.20550777  0.53441478  0.63667586     0.39300
C1504       C  0.14843067  0.45021109  0.56345135     0.36200
C1505       C  0.16809185  0.52303838  0.54320493     0.36900
C1506       C  0.04670115  0.46104360  0.57512126     0.40100
N1507       N  0.21763309  0.55227919  0.65089356    -0.37900
N1508       N  0.15181806  0.55132115  0.61466695    -0.39500
N1509       N  0.19592795  0.42744219  0.58897428    -0.37300
N1510       N  0.13737990  0.43378105  0.54821013    -0.39600
N1511       N  0.08643635  0.44949162  0.61989511    -0.39400
N1512       N  0.02193365  0.44657658  0.58102764    -0.37000
N1513       N  0.13138037  0.54256618  0.50126516    -0.38100
N1514       N  0.19245701  0.53432087  0.53636895    -0.39800
C1515       C  0.84570333  0.33072133  0.60428416    -0.04700
C1516       C  0.84016666  0.34884051  0.58946585     0.09500
C1517       C  0.81113843  0.34457607  0.58841120    -0.02100
C1518       C  0.78775029  0.32226487  0.60213100    -0.00300
C1519       C  0.79321827  0.30389720  0.61675621    -0.04000
C1520       C  0.82224812  0.30812733  0.61772277     0.03100
C1521       C  0.86517249  0.37258480  0.57512553     0.09900
C1522       C  0.80528998  0.36286349  0.57294225     0.35800
C1523       C  0.82769370  0.28831592  0.63172402     0.39200
C1524       C  0.87192062  0.36528981  0.55351598    -0.04300
C1525       C  0.89658920  0.38730030  0.54057486     0.02800
C1526       C  0.91463424  0.41706761  0.54906115    -0.03900
C1527       C  0.90743371  0.42421750  0.57075005    -0.00100
C1528       C  0.88287382  0.40207529  0.58364667    -0.02700
C1529       C  0.85340160  0.33497628  0.54464796     0.36500
C1530       C  0.92480542  0.45450191  0.57981056     0.40200
C1531       C  0.90380663  0.37880299  0.51887795     0.39300
C1532       C  0.87569761  0.40958393  0.60580644     0.36200
C1533       C  0.87554929  0.33514719  0.60542972     0.36900
C1534       C  0.75808651  0.31830928  0.60131868     0.40100
N1535       N  0.90950324  0.37198056  0.50156411    -0.37900
N1536       N  0.83857485  0.31081335  0.53756274    -0.39500
N1537       N  0.93883919  0.47860241  0.58713226    -0.37300
N1538       N  0.86990124  0.41552271  0.62346490    -0.39600
N1539       N  0.80052696  0.37731256  0.56050930    -0.39400
N1540       N  0.73447074  0.31529046  0.60072756    -0.37000
N1541       N  0.83207471  0.27239328  0.64271732    -0.38100
N1542       N  0.89939000  0.33874602  0.60629330    -0.39800
C1543       C  0.12460078  0.64383879  0.44510231    -0.04700
C1544       C  0.13312932  0.63661457  0.42422545     0.09500
C1545       C  0.11740784  0.60667701  0.41624412    -0.02100
C1546       C  0.09387785  0.58382418  0.42948753    -0.00300
C1547       C  0.08576113  0.59086802  0.45073885    -0.04000
C1548       C  0.10108886  0.62103938  0.45836529     0.03100
C1549       C  0.15912933  0.66056325  0.41084398     0.09900
C1550       C  0.12532582  0.59952940  0.39426098     0.35800
C1551       C  0.09359965  0.62846321  0.48036687     0.39200
C1552       C  0.18859306  0.66794943  0.41621466    -0.04300
C1553       C  0.21324048  0.69085104  0.40387694     0.02800
C1554       C  0.20853225  0.70643549  0.38598485    -0.03900
C1555       C  0.17893515  0.69893800  0.38063360    -0.00100
C1556       C  0.15434350  0.67609529  0.39306987    -0.02700
C1557       C  0.19345903  0.65186829  0.43447034     0.36500
C1558       C  0.17378130  0.71544608  0.36291290     0.40200
C1559       C  0.24338817  0.69783010  0.40926327     0.39300
C1560       C  0.12404466  0.66872730  0.38783685     0.36200
C1561       C  0.14010028  0.67482511  0.45288263     0.36900
C1562       C  0.07753433  0.55318793  0.42093265     0.40100
N1563       N  0.26744182  0.70342598  0.41356540    -0.37900
N1564       N  0.19727895  0.63902016  0.44905039    -0.39500
N1565       N  0.16966852  0.72864718  0.34880423    -0.37300
N1566       N  0.09982435  0.66277436  0.38375678    -0.39600
N1567       N  0.13158092  0.59390026  0.37666351    -0.39400
N1568       N  0.06440380  0.52875057  0.41412325    -0.37000
N1569       N  0.08762985  0.63423578  0.49799773    -0.38100
N1570       N  0.15242116  0.69958254  0.45899293    -0.39800
C1571       C  0.90358168  0.52916718  0.42015848    -0.04700
C1572       C  0.87302399  0.50809339  0.42468994     0.09500
C1573       C  0.86527525  0.48704802  0.44267622    -0.02100
C1574       C  0.88787903  0.48734958  0.45631759    -0.00300
C1575       C  0.91861491  0.50846028  0.45183988    -0.04000
C1576       C  0.92629393  0.52944894  0.43368388     0.03100
C1577       C  0.84888048  0.50903461  0.41126261     0.09900
C1578       C  0.83389903  0.46503008  0.44709616     0.35800
C1579       C  0.95758629  0.55088617  0.42845913     0.39200
C1580       C  0.83782280  0.49275786  0.39060841    -0.04300
C1581       C  0.81457177  0.49320610  0.37835183     0.02800
C1582       C  0.80285991  0.51093560  0.38623418    -0.03900
C1583       C  0.81480463  0.52792946  0.40670587    -0.00100
C1584       C  0.83701937  0.52626685  0.41939330    -0.02700
C1585       C  0.85029644  0.47530722  0.38211397     0.36500
C1586       C  0.80529698  0.54822776  0.41443335     0.40200
C1587       C  0.80211660  0.47446368  0.35811253     0.39300
C1588       C  0.84759687  0.54213434  0.44107463     0.36200
C1589       C  0.91158499  0.55039399  0.40135439     0.36900
C1590       C  0.87932785  0.46664219  0.47557427     0.40100
N1591       N  0.79217399  0.45942094  0.34200571    -0.37900
N1592       N  0.86037771  0.46150277  0.37533347    -0.39500
N1593       N  0.79786041  0.56454397  0.42056595    -0.37300
N1594       N  0.85587758  0.55451192  0.45848056    -0.39600
N1595       N  0.80884907  0.44742126  0.45050830    -0.39400
N1596       N  0.87249047  0.45022676  0.49099837    -0.37000
N1597       N  0.98255758  0.56801913  0.42432039    -0.38100
N1598       N  0.91788774  0.56720175  0.38626421    -0.39800
C1599       C  0.85993850  0.39851527  0.93515173    -0.04700
C1600       C  0.85697237  0.37073372  0.92919021     0.09500
C1601       C  0.87923537  0.36465184  0.93645857    -0.02100
C1602       C  0.90458626  0.38642599  0.94891258    -0.00300
C1603       C  0.90745038  0.41407890  0.95488577    -0.04000
C1604       C  0.88484570  0.41989394  0.94820527     0.03100
C1605       C  0.83084965  0.34809345  0.91481003     0.09900
C1606       C  0.87598401  0.33587297  0.93111762     0.35800
C1607       C  0.88730327  0.44801179  0.95474083     0.39200
C1608       C  0.83528375  0.34351719  0.89158239    -0.04300
C1609       C  0.81136548  0.32098365  0.87835416     0.02800
C1610       C  0.78228444  0.30275974  0.88815651    -0.03900
C1611       C  0.77760183  0.30891969  0.91109843    -0.00100
C1612       C  0.80181282  0.33095774  0.92439221    -0.02700
C1613       C  0.86480054  0.36198521  0.88132572     0.36500
C1614       C  0.74766992  0.29338926  0.92102105     0.40200
C1615       C  0.81735300  0.31643114  0.85481438     0.39300
C1616       C  0.79692915  0.33572816  0.94817463     0.36200
C1617       C  0.83756860  0.40529883  0.92755554     0.36900
C1618       C  0.92802017  0.38060659  0.95526732     0.40100
N1619       N  0.82225145  0.31305886  0.83599954    -0.37900
N1620       N  0.88838428  0.37668715  0.87322024    -0.39500
N1621       N  0.72380844  0.28113037  0.92894597    -0.37300
N1622       N  0.79304245  0.33958758  0.96713126    -0.39600
N1623       N  0.87332037  0.31288301  0.92682957    -0.39400
N1624       N  0.94684167  0.37606250  0.96017966    -0.37000
N1625       N  0.88921644  0.47037039  0.96009489    -0.38100
N1626       N  0.81969790  0.41070222  0.92153103    -0.39800
C1627       C  0.11254597  0.51390480  0.91405956    -0.04700
C1628       C  0.13136833  0.50492237  0.92397110     0.09500
C1629       C  0.12747650  0.49613399  0.94727795    -0.02100
C1630       C  0.10443085  0.49555794  0.96052269    -0.00300
C1631       C  0.08442426  0.50322804  0.95041049    -0.04000
C1632       C  0.08923266  0.51310547  0.92712046     0.03100
C1633       C  0.15494108  0.50392863  0.90979044     0.09900
C1634       C  0.14718455  0.48735365  0.95757503     0.35800
C1635       C  0.07099866  0.52356449  0.91662001     0.39200
C1636       C  0.18480482  0.52861633  0.90951029    -0.04300
C1637       C  0.20729136  0.52677089  0.89735088     0.02800
C1638       C  0.20012154  0.50014363  0.88554588    -0.03900
C1639       C  0.17008851  0.47576332  0.88530547    -0.00100
C1640       C  0.14759046  0.47767037  0.89736301    -0.02700
C1641       C  0.19243435  0.55580123  0.92195705     0.36500
C1642       C  0.16249628  0.44836070  0.87317189     0.40200
C1643       C  0.23772949  0.55249502  0.89658299     0.39300
C1644       C  0.11686805  0.45242549  0.89732182     0.36200
C1645       C  0.11741036  0.52424628  0.89037131     0.36900
C1646       C  0.10143926  0.48672695  0.98452323     0.40100
N1647       N  0.26198305  0.57307478  0.89583310    -0.37900
N1648       N  0.19865985  0.57751391  0.93193398    -0.39500
N1649       N  0.15650877  0.42651156  0.86349660    -0.37300
N1650       N  0.09231712  0.43234798  0.89731248    -0.39600
N1651       N  0.16292812  0.48035010  0.96572835    -0.39400
N1652       N  0.09940383  0.48005174  0.00373441    -0.37000
N1653       N  0.05644480  0.53186658  0.90820861    -0.38100
N1654       N  0.12138171  0.53267056  0.87152017    -0.39800
C1655       C  0.88094662  0.52145423  0.05801843    -0.04700
C1656       C  0.87100476  0.50434223  0.07850165     0.09500
C1657       C  0.88526896  0.48904217  0.08611389    -0.02100
C1658       C  0.90895419  0.49046419  0.07317478    -0.00300
C1659       C  0.91812984  0.50653081  0.05209165    -0.04000
C1660       C  0.90410088  0.52228259  0.04475383     0.03100
C1661       C  0.84502134  0.50195180  0.09173129     0.09900
C1662       C  0.87524072  0.47144147  0.10715457     0.35800
C1663       C  0.91240676  0.53823913  0.02297947     0.39200
C1664       C  0.81541510  0.48364417  0.08346684    -0.04300
C1665       C  0.79097448  0.48205807  0.09539354     0.02800
C1666       C  0.79584378  0.49864606  0.11592948    -0.03900
C1667       C  0.82563511  0.51691338  0.12419387    -0.00100
C1668       C  0.84999422  0.51845519  0.11218054    -0.02700
C1669       C  0.81017265  0.46635499  0.06259122     0.36500
C1670       C  0.83160798  0.53539953  0.14447486     0.40200
C1671       C  0.76078366  0.46291524  0.08656144     0.39300
C1672       C  0.88037846  0.53751744  0.12065368     0.36200
C1673       C  0.86699902  0.53797196  0.05045029     0.36900
C1674       C  0.92446369  0.47608360  0.08199858     0.40100
N1675       N  0.73676251  0.44772871  0.07937446    -0.37900
N1676       N  0.80616427  0.45270155  0.04589423    -0.39500
N1677       N  0.83631326  0.55016156  0.16063124    -0.37300
N1678       N  0.90460499  0.55265488  0.12746207    -0.39600
N1679       N  0.86723990  0.45740051  0.12393946    -0.39400
N1680       N  0.93702554  0.46484092  0.08912412    -0.37000
N1681       N  0.91901181  0.55085422  0.00555094    -0.38100
N1682       N  0.85581042  0.55109512  0.04443555    -0.39800
C1683       C  0.16430750  0.65524419  0.10571513    -0.04700
C1684       C  0.15481763  0.66381578  0.08596978     0.09500
C1685       C  0.16884946  0.69448185  0.07999190    -0.02100
C1686       C  0.19227605  0.71656323  0.09369419    -0.00300
C1687       C  0.20281025  0.70802400  0.11306253    -0.04000
C1688       C  0.18856175  0.67708805  0.11895463     0.03100
C1689       C  0.13026143  0.64037483  0.07121589     0.09900
C1690       C  0.15911485  0.70325571  0.05962135     0.35800
C1691       C  0.19933440  0.66735788  0.13813585     0.39200
C1692       C  0.10044872  0.63347402  0.07394485    -0.04300
C1693       C  0.07718789  0.61083588  0.06040942     0.02800
C1694       C  0.08358501  0.59465944  0.04412018    -0.03900
C1695       C  0.11379148  0.60240320  0.04098313    -0.00100
C1696       C  0.13691824  0.62503694  0.05455346    -0.02700
C1697       C  0.09371481  0.64935917  0.09109273     0.36500
C1698       C  0.12139947  0.58773933  0.02334295     0.40200
C1699       C  0.04659048  0.60366040  0.06390996     0.39300
C1700       C  0.16771157  0.63258145  0.05146870     0.36200
C1701       C  0.14884630  0.62381321  0.11246608     0.36900
C1702       C  0.20461750  0.74810300  0.08819475     0.40100
N1703       N  0.02221567  0.59806734  0.06667771    -0.37900
N1704       N  0.08846541  0.66207748  0.10481604    -0.39500
N1705       N  0.12752075  0.57610904  0.00926780    -0.37300
N1706       N  0.19228756  0.63862761  0.04909145    -0.39600
N1707       N  0.15135215  0.71019041  0.04333873    -0.39400
N1708       N  0.21437229  0.77325183  0.08385095    -0.37000
N1709       N  0.20790084  0.65951987  0.15340209    -0.38100
N1710       N  0.13630081  0.59876271  0.11793418    -0.39800
C1711       C  0.32789746  0.83552690  0.59044232    -0.04700
C1712       C  0.35658533  0.83903789  0.58913302     0.09500
C1713       C  0.36182755  0.81782223  0.59992223    -0.02100
C1714       C  0.33839555  0.79307371  0.61184145    -0.00300
C1715       C  0.30978227  0.78974975  0.61338860    -0.04000
C1716       C  0.30461731  0.81110269  0.60269018     0.03100
C1717       C  0.38091192  0.86440268  0.57543970     0.09900
C1718       C  0.39123552  0.82124653  0.59839180     0.35800
C1719       C  0.27544141  0.80818834  0.60452439     0.39200
C1720       C  0.39783771  0.89339397  0.58498732    -0.04300
C1721       C  0.42066263  0.91735103  0.57197481     0.02800
C1722       C  0.42614117  0.91272570  0.54878497    -0.03900
C1723       C  0.40903302  0.88320621  0.53946144    -0.00100
C1724       C  0.38662580  0.85934620  0.55275757    -0.02700
C1725       C  0.39132217  0.89862711  0.60819658     0.36500
C1726       C  0.41470876  0.87668750  0.51639586     0.40200
C1727       C  0.43817652  0.94662556  0.58278370     0.39300
C1728       C  0.36901074  0.82938540  0.54302915     0.36200
C1729       C  0.32226666  0.85682816  0.57879284     0.36900
C1730       C  0.34328632  0.77022943  0.62154047     0.40100
N1731       N  0.45230110  0.96975882  0.59168402    -0.37900
N1732       N  0.38593545  0.90286182  0.62661515    -0.39500
N1733       N  0.41895486  0.87124458  0.49799872    -0.37300
N1734       N  0.35488702  0.80544358  0.53540010    -0.39600
N1735       N  0.41467391  0.82393313  0.59709899    -0.39400
N1736       N  0.34704169  0.75181570  0.62908495    -0.37000
N1737       N  0.25215396  0.80582025  0.60599515    -0.38100
N1738       N  0.31783990  0.87381143  0.56941008    -0.39800
C1739       C  0.47836529  0.15837560  0.58204053    -0.04700
C1740       C  0.50009999  0.15083930  0.58732946     0.09500
C1741       C  0.52014352  0.16547318  0.60573044    -0.02100
C1742       C  0.51877021  0.18779510  0.61857046    -0.00300
C1743       C  0.49676537  0.19522978  0.61349689    -0.04000
C1744       C  0.47634178  0.18004723  0.59524699     0.03100
C1745       C  0.50180744  0.12732564  0.57356614     0.09900
C1746       C  0.54222869  0.15745432  0.61144634     0.35800
C1747       C  0.45241788  0.18578643  0.59047299     0.39200
C1748       C  0.52431749  0.13588973  0.55668449    -0.04300
C1749       C  0.52650105  0.11378946  0.54421877     0.02800
C1750       C  0.50557352  0.08280654  0.54805051    -0.03900
C1751       C  0.48246253  0.07434357  0.56448382    -0.00100
C1752       C  0.48081102  0.09647785  0.57732795    -0.02700
C1753       C  0.54485215  0.16756018  0.55182185     0.36500
C1754       C  0.45936705  0.04290674  0.56738589     0.40200
C1755       C  0.55078242  0.12307169  0.52783225     0.39300
C1756       C  0.45715865  0.08754663  0.59423157     0.36200
C1757       C  0.45813350  0.14383182  0.56283800     0.36900
C1758       C  0.54078240  0.20377011  0.63648283     0.40100
N1759       N  0.57020202  0.13056055  0.51479584    -0.37900
N1760       N  0.56105331  0.19284033  0.54786412    -0.39500
N1761       N  0.44075163  0.01786787  0.56953539    -0.37300
N1762       N  0.43819732  0.08047122  0.60762618    -0.39600
N1763       N  0.55980950  0.15099906  0.61596933    -0.39400
N1764       N  0.55839516  0.21654537  0.65073647    -0.37000
N1765       N  0.43324827  0.19024607  0.58669425    -0.38100
N1766       N  0.44207440  0.13220501  0.54748631    -0.39800
C1767       C  0.53400257  0.83981968  0.41117662    -0.04700
C1768       C  0.51156028  0.84677141  0.40698602     0.09500
C1769       C  0.48949958  0.83041964  0.39010503    -0.02100
C1770       C  0.48949927  0.80691113  0.37788437    -0.00300
C1771       C  0.51178152  0.79968849  0.38224211    -0.04000
C1772       C  0.53411392  0.81641016  0.39893134     0.03100
C1773       C  0.51083247  0.87084810  0.42082291     0.09900
C1774       C  0.46662925  0.83768838  0.38542641     0.35800
C1775       C  0.55776525  0.81011076  0.40315074     0.39200
C1776       C  0.52113825  0.89960901  0.41123624    -0.04300
C1777       C  0.52095636  0.92230746  0.42448088     0.02800
C1778       C  0.51097883  0.91665919  0.44755568    -0.03900
C1779       C  0.50063653  0.88788949  0.45713678    -0.00100
C1780       C  0.50038286  0.86505327  0.44379441    -0.02700
C1781       C  0.53226547  0.90593241  0.38778817     0.36500
C1782       C  0.49109820  0.88205437  0.48099243     0.40200
C1783       C  0.53043520  0.95130695  0.41417366     0.39300
C1784       C  0.48949660  0.83552454  0.45372590     0.36200
C1785       C  0.55721909  0.85707187  0.42802155     0.36900
C1786       C  0.46574814  0.78931788  0.36149665     0.40100
N1787       N  0.53787469  0.97435527  0.40580160    -0.37900
N1788       N  0.54115538  0.91097778  0.36907695    -0.39500
N1789       N  0.48370955  0.87746841  0.50007467    -0.37300
N1790       N  0.48090445  0.81195112  0.46159686    -0.39600
N1791       N  0.44850549  0.84362579  0.38157239    -0.39400
N1792       N  0.44674587  0.77515800  0.34849219    -0.37000
N1793       N  0.57662609  0.80507474  0.40652457    -0.38100
N1794       N  0.57568050  0.87088410  0.44148849    -0.39800
C1795       C  0.63897868  0.13553613  0.44396560    -0.04700
C1796       C  0.63615385  0.13365168  0.41976453     0.09500
C1797       C  0.61204470  0.10768879  0.40960722    -0.02100
C1798       C  0.59107510  0.08364469  0.42356887    -0.00300
C1799       C  0.59423406  0.08532835  0.44772743    -0.04000
C1800       C  0.61815175  0.11138506  0.45790856     0.03100
C1801       C  0.65904618  0.15890027  0.40505607     0.09900
C1802       C  0.60875389  0.10582605  0.38479417     0.35800
C1803       C  0.62107930  0.11346548  0.48275803     0.39200
C1804       C  0.68722022  0.16191271  0.40115015    -0.04300
C1805       C  0.70963530  0.18673493  0.38860148     0.02800
C1806       C  0.70389186  0.20855151  0.37962653    -0.03900
C1807       C  0.67560932  0.20538977  0.38337678    -0.00100
C1808       C  0.65320170  0.18056823  0.39597616    -0.02700
C1809       C  0.69318760  0.13957706  0.41039105     0.36500
C1810       C  0.67022198  0.22868089  0.37557081     0.40200
C1811       C  0.73877342  0.19001369  0.38519578     0.39300
C1812       C  0.62441052  0.17774928  0.40021966     0.36200
C1813       C  0.66312562  0.16260504  0.45448088     0.36900
C1814       C  0.56606062  0.05726405  0.41307419     0.40100
N1815       N  0.76203551  0.19261686  0.38262053    -0.37900
N1816       N  0.69778700  0.12170432  0.41787885    -0.39500
N1817       N  0.66596393  0.24742320  0.36967282    -0.37300
N1818       N  0.60143046  0.17547742  0.40361330    -0.39600
N1819       N  0.60602478  0.10435480  0.36500163    -0.39400
N1820       N  0.54612469  0.03629768  0.40458268    -0.37000
N1821       N  0.62340750  0.11511307  0.50257879    -0.38100
N1822       N  0.68239394  0.18428612  0.46278548    -0.39800
C1823       C  0.61627247  0.47767219  0.94621489    -0.04700
C1824       C  0.62863806  0.49622920  0.92661292     0.09500
C1825       C  0.61828210  0.51556354  0.92032624    -0.02100
C1826       C  0.59525672  0.51580029  0.93312868    -0.00300
C1827       C  0.58247678  0.49690569  0.95261191    -0.04000
C1828       C  0.59347402  0.47807430  0.95920142     0.03100
C1829       C  0.65230006  0.49510153  0.91239215     0.09900
C1830       C  0.63125832  0.53510426  0.90047730     0.35800
C1831       C  0.58208330  0.45974261  0.97982521     0.39200
C1832       C  0.64393821  0.47237071  0.89573067    -0.04300
C1833       C  0.66601293  0.47134997  0.88220431     0.02800
C1834       C  0.69692757  0.49282042  0.88544905    -0.03900
C1835       C  0.70520892  0.51563918  0.90218504    -0.00100
C1836       C  0.68304076  0.51671374  0.91552860    -0.02700
C1837       C  0.61246262  0.44969935  0.89274754     0.36500
C1838       C  0.73654914  0.53875872  0.90525034     0.40200
C1839       C  0.65676019  0.44760099  0.86536268     0.39300
C1840       C  0.69186669  0.54004295  0.93267210     0.36200
C1841       C  0.62725168  0.45824625  0.95307519     0.36900
C1842       C  0.58391757  0.53468400  0.92563388     0.40100
N1843       N  0.64933211  0.42871052  0.85186206    -0.37900
N1844       N  0.58735140  0.43150409  0.89051432    -0.39500
N1845       N  0.76156423  0.55717533  0.90765722    -0.37300
N1846       N  0.69891686  0.55866389  0.94635106    -0.39600
N1847       N  0.64176426  0.55077029  0.88468640    -0.39400
N1848       N  0.57476742  0.54966492  0.91963753    -0.37000
N1849       N  0.57312659  0.44518303  0.99631826    -0.38100
N1850       N  0.63608163  0.44277668  0.95846268    -0.39800
C1851       C  0.47091295  0.65272990  0.90984926    -0.04700
C1852       C  0.49676630  0.65043539  0.91019431     0.09500
C1853       C  0.52183898  0.67035083  0.89660385    -0.02100
C1854       C  0.52132745  0.69275511  0.88314054    -0.00300
C1855       C  0.49574865  0.69550726  0.88318701    -0.04000
C1856       C  0.47039720  0.67516820  0.89638330     0.03100
C1857       C  0.49756050  0.62669789  0.92447986     0.09900
C1858       C  0.54831787  0.66789824  0.89670105     0.35800
C1859       C  0.44352471  0.67692431  0.89569420     0.39200
C1860       C  0.49109509  0.59934454  0.91429799    -0.04300
C1861       C  0.49302167  0.57746787  0.92737773     0.02800
C1862       C  0.50117586  0.58259941  0.95083415    -0.03900
C1863       C  0.50697998  0.60966568  0.96117568    -0.00100
C1864       C  0.50533377  0.63170828  0.94802408    -0.02700
C1865       C  0.48185353  0.59351904  0.89041655     0.36500
C1866       C  0.51304038  0.61410030  0.98562525     0.40200
C1867       C  0.48656050  0.54954601  0.91670664     0.39300
C1868       C  0.51101547  0.65930640  0.95880297     0.36200
C1869       C  0.44484924  0.63195951  0.92336662     0.36900
C1870       C  0.54745007  0.71350699  0.86965164     0.40100
N1871       N  0.48149646  0.52726466  0.90825283    -0.37900
N1872       N  0.47432988  0.58889267  0.87138577    -0.39500
N1873       N  0.51741603  0.61740685  0.00520543    -0.37300
N1874       N  0.51538295  0.68125650  0.96743917    -0.39600
N1875       N  0.56937148  0.66580560  0.89682703    -0.39400
N1876       N  0.56825179  0.73009882  0.85885792    -0.37000
N1877       N  0.42197693  0.67813684  0.89502964    -0.38100
N1878       N  0.42405561  0.61544529  0.93419608    -0.39800
C1879       C  0.46895364  0.32243900  0.10897193    -0.04700
C1880       C  0.49387435  0.34195757  0.09507402     0.09500
C1881       C  0.51901349  0.33844886  0.09439541    -0.02100
C1882       C  0.51873063  0.31493074  0.10683074    -0.00300
C1883       C  0.49314491  0.29445097  0.11968936    -0.04000
C1884       C  0.46851910  0.29867493  0.12114557     0.03100
C1885       C  0.49331891  0.36577339  0.08076058     0.09900
C1886       C  0.54521813  0.35909528  0.08092969     0.35800
C1887       C  0.44254891  0.27831312  0.13495079     0.39200
C1888       C  0.51035559  0.39631346  0.08724258    -0.04300
C1889       C  0.51052133  0.41874751  0.07332962     0.02800
C1890       C  0.49260385  0.41069393  0.05317709    -0.03900
C1891       C  0.47495692  0.37989779  0.04708882    -0.00100
C1892       C  0.47562103  0.35767053  0.06065528    -0.02700
C1893       C  0.52741558  0.40451453  0.10847603     0.36500
C1894       C  0.45532724  0.37079232  0.02722020     0.40200
C1895       C  0.53015193  0.45018057  0.07938116     0.39300
C1896       C  0.45792731  0.32626797  0.05398380     0.36200
C1897       C  0.44381336  0.32697433  0.11078422     0.36900
C1898       C  0.54524820  0.31253530  0.10719595     0.40100
N1899       N  0.54593371  0.47523402  0.08417726    -0.37900
N1900       N  0.54087469  0.41084393  0.12548307    -0.39500
N1901       N  0.43961678  0.36349837  0.01140147    -0.37300
N1902       N  0.44375272  0.30118348  0.04878652    -0.39600
N1903       N  0.56622846  0.37567903  0.07032341    -0.39400
N1904       N  0.56652288  0.31083183  0.10773784    -0.37000
N1905       N  0.42186798  0.26208656  0.14600720    -0.38100
N1906       N  0.42382323  0.33070797  0.11219355    -0.39800
C1907       C  0.31113474  0.47934364  0.08488225    -0.04700
C1908       C  0.34161737  0.49784276  0.09118163     0.09500
C1909       C  0.34900537  0.51651567  0.11071714    -0.02100
C1910       C  0.32627056  0.51723041  0.12349751    -0.00300
C1911       C  0.29564012  0.49841016  0.11741554    -0.04000
C1912       C  0.28827724  0.47917529  0.09810947     0.03100
C1913       C  0.36588043  0.49753958  0.07724322     0.09900
C1914       C  0.38013391  0.53493691  0.11777513     0.35800
C1915       C  0.25710162  0.45828427  0.09216129     0.39200
C1916       C  0.38568431  0.52259588  0.06345655    -0.04300
C1917       C  0.40848838  0.52227896  0.05048365     0.02800
C1918       C  0.41105591  0.49651855  0.05051804    -0.03900
C1919       C  0.39068477  0.47114022  0.06366270    -0.00100
C1920       C  0.36877312  0.47194027  0.07745354    -0.02700
C1921       C  0.38240009  0.54862636  0.06246378     0.36500
C1922       C  0.39135375  0.44365559  0.06210000     0.40200
C1923       C  0.42967279  0.54866907  0.03736293     0.39300
C1924       C  0.34928229  0.44643194  0.09201936     0.36200
C1925       C  0.30324531  0.46037828  0.06467043     0.36900
C1926       C  0.33468111  0.53825187  0.14241362     0.40100
N1927       N  0.44668778  0.56970735  0.02693647    -0.37900
N1928       N  0.37974196  0.56937552  0.06173909    -0.39500
N1929       N  0.39164716  0.42162368  0.06052195    -0.37300
N1930       N  0.33371707  0.42610455  0.10366229    -0.39600
N1931       N  0.40497806  0.54965423  0.12336876    -0.39400
N1932       N  0.34137864  0.55509909  0.15744960    -0.37000
N1933       N  0.23225602  0.44156291  0.08742243    -0.38100
N1934       N  0.29697350  0.44515545  0.04861645    -0.39800
C1935       C  0.47858986  0.11665333  0.94048005    -0.04700
C1936       C  0.49574788  0.12827909  0.92022514     0.09500
C1937       C  0.51269914  0.11598576  0.91216662    -0.02100
C1938       C  0.51303670  0.09269448  0.92460771    -0.00300
C1939       C  0.49667909  0.08172408  0.94540624    -0.04000
C1940       C  0.47922268  0.09373462  0.95309106     0.03100
C1941       C  0.49651226  0.15411629  0.90785237     0.09900
C1942       C  0.52972697  0.12730651  0.89100094     0.35800
C1943       C  0.46268472  0.08331734  0.97450294     0.39200
C1944       C  0.51777029  0.18403173  0.91415161    -0.04300
C1945       C  0.51808946  0.20846291  0.90306874     0.02800
C1946       C  0.49697504  0.20318297  0.88562376    -0.03900
C1947       C  0.47560798  0.17312513  0.87941462    -0.00100
C1948       C  0.47529350  0.14876262  0.89057338    -0.02700
C1949       C  0.53918585  0.18954803  0.93225603     0.36500
C1950       C  0.45338600  0.16716456  0.86186873     0.40200
C1951       C  0.54093518  0.23900589  0.90907904     0.39300
C1952       C  0.45272220  0.11808125  0.88461096     0.36200
C1953       C  0.46033054  0.12849144  0.94838846     0.36900
C1954       C  0.52928856  0.07924674  0.91551520     0.40100
N1955       N  0.55938054  0.26328547  0.91393797    -0.37900
N1956       N  0.55610495  0.19372994  0.94678289    -0.39500
N1957       N  0.43575732  0.16253870  0.84782395    -0.37300
N1958       N  0.43459029  0.09360508  0.87992881    -0.39600
N1959       N  0.54332895  0.13633375  0.87410965    -0.39400
N1960       N  0.54203980  0.06830672  0.90821534    -0.37000
N1961       N  0.44958592  0.07485048  0.99162483    -0.38100
N1962       N  0.44569602  0.13790881  0.95457540    -0.39800
C1963       C  0.34909491  0.81658833  0.89945233    -0.04700
C1964       C  0.34332399  0.83784014  0.90934523     0.09500
C1965       C  0.31438012  0.83365529  0.90750956    -0.02100
C1966       C  0.29139790  0.80852593  0.89564190    -0.00300
C1967       C  0.29723246  0.78738450  0.88549402    -0.04000
C1968       C  0.32600856  0.79121484  0.88789380     0.03100
C1969       C  0.36728669  0.86392210  0.92271223     0.09900
C1970       C  0.30837187  0.85537650  0.91783818     0.35800
C1971       C  0.33132312  0.76801654  0.87984606     0.39200
C1972       C  0.38826477  0.89088178  0.91141606    -0.04300
C1973       C  0.41040531  0.91555164  0.92422240     0.02800
C1974       C  0.41137912  0.91345881  0.94839810    -0.03900
C1975       C  0.39043674  0.88651227  0.95965903    -0.00100
C1976       C  0.36873180  0.86169423  0.94682991    -0.02700
C1977       C  0.38730972  0.89296027  0.88658840     0.36500
C1978       C  0.39131570  0.88437949  0.98451097     0.40200
C1979       C  0.43254623  0.94286311  0.91252090     0.39300
C1980       C  0.34833703  0.83351896  0.95834691     0.36200
C1981       C  0.37878153  0.82075331  0.90137051     0.36900
C1982       C  0.26180910  0.80458210  0.89385877     0.40100
N1983       N  0.45025713  0.96461800  0.90316688    -0.37900
N1984       N  0.38656725  0.89450109  0.86676120    -0.39500
N1985       N  0.39203845  0.88285575  0.00434135    -0.37300
N1986       N  0.33223480  0.81092495  0.96747744    -0.39600
N1987       N  0.30372031  0.87277979  0.92612192    -0.39400
N1988       N  0.23825667  0.80163175  0.89266901    -0.37000
N1989       N  0.33553575  0.74927044  0.87396868    -0.38100
N1990       N  0.40250823  0.82415776  0.90281606    -0.39800
C1991       C  0.65059315  0.16906942  0.10463642    -0.04700
C1992       C  0.65791898  0.15620859  0.08637841     0.09500
C1993       C  0.68835501  0.16802708  0.08066949    -0.02100
C1994       C  0.71133434  0.19287861  0.09283928    -0.00300
C1995       C  0.70406119  0.20644939  0.11080872    -0.04000
C1996       C  0.67341501  0.19420030  0.11663212     0.03100
C1997       C  0.63353088  0.13117291  0.07232639     0.09900
C1998       C  0.69593203  0.15447883  0.06214306     0.35800
C1999       C  0.66504307  0.20820262  0.13427652     0.39200
C2000       C  0.62449536  0.13779999  0.05138624    -0.04300
C2001       C  0.60172327  0.11451262  0.03791723     0.02800
C2002       C  0.58788485  0.08400574  0.04509318    -0.03900
C2003       C  0.59735221  0.07750309  0.06611108    -0.00100
C2004       C  0.61974576  0.10099948  0.07971814    -0.02700
C2005       C  0.63859194  0.16887188  0.04383789     0.36500
C2006       C  0.58492555  0.04657544  0.07352908     0.40200
C2007       C  0.59202946  0.12238313  0.01705295     0.39300
C2008       C  0.62870241  0.09417743  0.10141743     0.36200
C2009       C  0.61939875  0.15656297  0.11093412     0.36900
C2010       C  0.74244096  0.20388323  0.08704159     0.40100
N2011       N  0.58439228  0.12879387  0.00042546    -0.37900
N2012       N  0.64997606  0.19369729  0.03790964    -0.39500
N2013       N  0.57509903  0.02191827  0.07944445    -0.37300
N2014       N  0.63574386  0.08877394  0.11879306    -0.39600
N2015       N  0.70181294  0.14358496  0.04732917    -0.39400
N2016       N  0.76717997  0.21250725  0.08224752    -0.37000
N2017       N  0.65840267  0.21943812  0.14831687    -0.38100
N2018       N  0.59454412  0.14652658  0.11612016    -0.39800
C2019       C  0.52431871  0.88588532  0.05574373    -0.04700
C2020       C  0.50009276  0.86676047  0.07039385     0.09500
C2021       C  0.47529780  0.87074828  0.07206365    -0.02100
C2022       C  0.47479420  0.89359010  0.05919023    -0.00300
C2023       C  0.49954142  0.91345261  0.04535650    -0.04000
C2024       C  0.52423168  0.90940780  0.04357685     0.03100
C2025       C  0.50082010  0.84249879  0.08405932     0.09900
C2026       C  0.45028321  0.85130820  0.08700031     0.35800
C2027       C  0.54978690  0.92991010  0.02949633     0.39200
C2028       C  0.51884082  0.84995066  0.10393694    -0.04300
C2029       C  0.52038094  0.82741870  0.11645172     0.02800
C2030       C  0.50355000  0.79689916  0.10939300    -0.03900
C2031       C  0.48520924  0.78950158  0.08952147    -0.00100
C2032       C  0.48397124  0.81219036  0.07694207    -0.02700
C2033       C  0.53597379  0.88102997  0.11145884     0.36500
C2034       C  0.46695290  0.75846287  0.08212876     0.40200
C2035       C  0.54038475  0.83608174  0.13606687     0.39300
C2036       C  0.46543236  0.80442690  0.05649823     0.36200
C2037       C  0.54919593  0.88110785  0.05299325     0.36900
C2038       C  0.44811033  0.89558604  0.05894881     0.40100
N2039       N  0.55637285  0.84300798  0.15169955    -0.37900
N2040       N  0.54964510  0.90585083  0.11738952    -0.39500
N2041       N  0.45229869  0.73379645  0.07601922    -0.37300
N2042       N  0.45061416  0.79834725  0.04022005    -0.39600
N2043       N  0.43031478  0.83580760  0.09892661    -0.39400
N2044       N  0.42674661  0.89704958  0.05801894    -0.37000
N2045       N  0.57009355  0.94662942  0.01833858    -0.38100
N2046       N  0.56898848  0.87720972  0.05072196    -0.39800
loop_ 
_geom_bond_atom_site_label_1 
_geom_bond_atom_site_label_2 
_geom_bond_distance 
_geom_bond_site_symmetry_2 
_ccdc_geom_bond_type 
O1           C17   1.274       .  A
O1           Zn7   2.022   1_554  S
C2           O18   1.273       .  A
C2           O15   1.277       .  A
C2         C1974   1.481       .  S
O3           C16   1.278   1_545  A
O3          Cd10   2.089       .  S
O4           C22   1.276       .  A
O4          Cd13   2.080   1_545  S
O5           C19   1.274       .  A
O5           Cd9   2.082   1_545  S
O6           C17   1.277       .  A
O6           Cd9   2.091       .  S
Zn7          O18   2.012       .  S
Zn7          O20   2.030       .  S
Zn7          O12   1.962       .  S
O8           C19   1.278       .  A
O8          Cd13   2.102   1_544  S
Cd9          O11   2.081   1_565  S
Cd9          O12   2.015   1_554  S
Cd10         O14   2.095   1_556  S
Cd10         O23   2.097       .  S
Cd10         O12   2.010   1_545  S
O11          C21   1.277       .  A
O12         Cd13   2.013       .  S
Cd13         O15   2.092       .  S
O14          C21   1.279       .  A
C16          O20   1.273       .  A
C16         N341   1.446       .  S
C17        C2023   1.488       .  S
C19         N204   1.439       .  S
C21        C2002   1.505       .  S
C22          O23   1.278       .  A
C22        C1939   1.499       .  S
O24          C40   1.280       .  A
O24         Zn30   2.064       .  S
C25          O41   1.280       .  A
C25          O38   1.272       .  A
C25        C1862   1.488       .  S
O26          C39   1.275       .  A
O26         Cd33   2.091       .  S
O27          C45   1.275       .  A
O27         Cd36   2.080   1_554  S
O28          C42   1.280       .  A
O28         Cd32   2.101       .  S
O29          C40   1.277       .  A
O29         Cd32   2.086       .  S
Zn30         O41   2.067       .  S
Zn30         O43   2.043   1_556  S
Zn30         O35   1.964   1_556  S
O31          C42   1.276       .  A
O31         Cd36   2.081       .  S
Cd32         O34   2.086   1_556  S
Cd32         O35   2.014   1_556  S
Cd33         O37   2.079       .  S
Cd33         O46   2.093       .  S
Cd33         O35   2.022       .  S
O34          C44   1.278       .  A
O35         Cd36   2.011   1_554  S
Cd36         O38   2.060       .  S
O37          C44   1.276       .  A
C39          O43   1.278       .  A
C39         N185   1.438       .  S
C40        C1827   1.503       .  S
C42         N360   1.448       .  S
C44        C1890   1.498       .  S
C45          O46   1.278       .  A
C45        C1918   1.489       .  S
O47          C63   1.275       .  A
O47         Zn53   2.028       .  S
C48          O64   1.273       .  A
C48          O61   1.278       .  A
C48        C1799   1.480       .  S
O49          C62   1.276   1_565  A
O49         Cd56   2.080       .  S
O50          C68   1.278       .  A
O50         Cd59   2.099   1_565  S
O51          C65   1.272       .  A
O51         Cd55   2.065       .  S
O52          C63   1.276       .  A
O52         Cd55   2.083       .  S
Zn53         O64   2.006       .  S
Zn53         O66   2.024       .  S
Zn53         O58   1.954       .  S
O54          C65   1.279       .  A
O54         Cd59   2.103       .  S
Cd55         O57   2.069   1_545  S
Cd55         O58   2.007       .  S
Cd56         O60   2.079       .  S
Cd56         O69   2.081       .  S
Cd56         O58   2.005   1_565  S
O57          C67   1.274       .  A
O58         Cd59   2.011       .  S
Cd59         O61   2.093       .  S
O60          C67   1.276       .  A
C62          O66   1.274       .  A
C62         N154   1.444       .  S
C63        C1750   1.494       .  S
C65         N265   1.434       .  S
C67        C1722   1.504       .  S
C68          O69   1.275       .  A
C68        C1778   1.491       .  S
O70          C86   1.276       .  A
O70         Zn76   2.031   1_556  S
C71          O87   1.275       .  A
C71          O84   1.277       .  A
C71        C1694   1.495       .  S
O72          C85   1.278   1_655  A
O72         Cd79   2.085       .  S
O73          C91   1.278       .  A
O73         Cd82   2.091       .  S
O74          C88   1.274       .  A
O74         Cd78   2.083       .  S
O75          C86   1.277       .  A
O75         Cd78   2.084   1_455  S
Zn76         O87   2.014       .  S
Zn76         O89   2.050       .  S
Zn76         O81   1.957   1_454  S
O77          C88   1.278       .  A
O77         Cd82   2.090   1_556  S
Cd78         O80   2.087       .  S
Cd78         O81   2.013       .  S
Cd79         O83   2.093   1_554  S
Cd79         O92   2.079       .  S
Cd79         O81   2.004   1_554  S
O80          C90   1.277       .  A
O81         Cd82   2.011   1_556  S
Cd82         O84   2.088   1_655  S
O83          C90   1.278       .  A
C85          O89   1.277       .  A
C85         N223   1.448       .  S
C86        C1631   1.505       .  S
C88         N310   1.436       .  S
C90        C1603   1.488       .  S
C91          O92   1.276       .  A
C91        C1659   1.499       .  S
O93         C109   1.274       .  A
O93         Zn99   2.014       .  S
C94         O110   1.277       .  A
C94         O107   1.278       .  A
C94        C1491   1.509       .  S
O95         C108   1.276   1_655  A
O95        Cd102   2.086       .  S
O96         C114   1.277       .  A
O96        Cd105   2.080   1_655  S
O97         C111   1.277       .  A
O97        Cd101   2.092       .  S
O98         C109   1.277       .  A
O98        Cd101   2.080       .  S
Zn99        O110   2.043       .  S
Zn99        O112   2.025       .  S
Zn99        O104   1.955       .  S
O100        C111   1.275       .  A
O100       Cd105   2.090       .  S
Cd101       O103   2.096   1_455  S
Cd101       O104   2.011       .  S
Cd102       O106   2.071       .  S
Cd102       O115   2.074       .  S
Cd102       O104   2.008   1_655  S
O103        C113   1.278       .  A
O104       Cd105   2.010       .  S
Cd105       O107   2.087       .  S
O106        C113   1.275       .  A
C108        O112   1.274       .  A
C108        N116   1.445       .  S
C109       C1547   1.487       .  S
C111        N303   1.438       .  S
C113       C1575   1.495       .  S
C114        O115   1.276       .  A
C114       C1526   1.499       .  S
N116        C120   1.363   1_455  A
N116        C117   1.363       .  A
C117       C1442   1.492       .  S
C117        C118   1.381       .  A
C118        C119   1.369   1_455  A
C118        H121   1.082       .  S
C119        C120   1.382       .  A
C119        H122   1.082       .  S
C120       C1463   1.493       .  S
C123       C1771   1.496       .  S
C123        N124   1.362       .  A
C123        N128   1.362       .  A
N124        C125   1.361       .  A
C125       C1379   1.503       .  S
C125        N126   1.362       .  A
N126        C127   1.364       .  A
C127       C1414   1.502       .  S
C127        N128   1.361       .  A
C129       C1806   1.485       .  S
C129        N130   1.357       .  A
C129        N134   1.361       .  A
N130        C131   1.356       .  A
C131       C1470   1.484       .  S
C131        N132   1.361       .  A
N132        C133   1.363       .  A
C133       C1358   1.507       .  S
C133        N134   1.364       .  A
N135        C245   1.442       .  S
N135        C139   1.364       .  A
N135        C136   1.362       .  A
C136       C1407   1.486       .  S
C136        C137   1.379       .  A
C137        C138   1.366       .  A
C137        H140   1.081       .  S
C138        C139   1.383       .  A
C138        H141   1.081       .  S
C139       C1323   1.492       .  S
C142       C1582   1.503       .  S
C142        N143   1.360       .  A
C142        N147   1.362       .  A
N143        C144   1.359       .  A
C144       C1330   1.503       .  S
C144        N145   1.361       .  A
N145        C146   1.362       .  A
C146       C1295   1.508       .  S
C146        N147   1.363       .  A
C148       C1554   1.486       .  S
C148        N149   1.358       .  A
C148        N153   1.358       .  A
N149        C150   1.360       .  A
C150       C1239   1.498       .  S
C150        N151   1.361       .  A
N151        C152   1.360       .  A
C152       C1274   1.480       .  S
C152        N153   1.357       .  A
N154        C158   1.360   1_545  A
N154        C155   1.362       .  A
C155       C1211   1.490       .  S
C155        C156   1.382       .  A
C156        C157   1.369   1_545  A
C156        H159   1.081       .  S
C157        C158   1.380       .  A
C157        H160   1.082       .  S
C158       C1267   1.485       .  S
C161       C1183   1.492       .  S
C161        N162   1.362       .  A
C161        N166   1.361       .  A
N162        C163   1.361       .  A
C163       C1155   1.494       .  S
C163        N164   1.360       .  A
N164        C165   1.360       .  A
C165       C1435   1.486       .  S
C165        N166   1.361       .  A
C167       C1134   1.502       .  S
C167        N168   1.361       .  A
C167        N172   1.362       .  A
N168        C169   1.360       .  A
C169       C1099   1.509       .  S
C169        N170   1.358       .  A
N170        C171   1.358       .  A
C171       C1218   1.491       .  S
C171        N172   1.359       .  A
C173       C2030   1.503       .  S
C173        N174   1.361       .  A
C173        N178   1.364       .  A
N174        C175   1.359       .  A
C175       C1071   1.488       .  S
C175        N176   1.361       .  A
N176        C177   1.362       .  A
C177       C1386   1.507       .  S
C177        N178   1.363       .  A
C179       C1995   1.500       .  S
C179        N180   1.361       .  A
C179        N184   1.362       .  A
N180        C181   1.360       .  A
C181       C1351   1.494       .  S
C181        N182   1.360       .  A
N182        C183   1.359       .  A
C183       C1043   1.483       .  S
C183        N184   1.360       .  A
N185        C189   1.362       .  A
N185        C186   1.360       .  A
C186       C1078   1.492       .  S
C186        C187   1.381       .  A
C187        C188   1.368       .  A
C187        H190   1.081       .  S
C188        C189   1.382       .  A
C188        H191   1.081       .  S
C189       C1022   1.491       .  S
C192       C1666   1.499       .  S
C192        N193   1.362       .  A
C192        N197   1.361       .  A
N193        C194   1.360       .  A
C194       C1302   1.494       .  S
C194        N195   1.362       .  A
N195        C196   1.361       .  A
C196       C1015   1.489       .  S
C196        N197   1.360       .  A
C198       C1687   1.496       .  S
C198        N199   1.361       .  A
C198        N203   1.360       .  A
N199        C200   1.359       .  A
C200       C1246   1.491       .  S
C200        N201   1.360       .  A
N201        C202   1.359       .  A
C202        C987   1.489       .  S
C202        N203   1.357       .  A
N204        C208   1.358   1_545  A
N204        C205   1.363       .  A
C205        C959   1.492       .  S
C205        C206   1.384       .  A
C206        C207   1.368   1_545  A
C206        H209   1.078       .  S
C207        C208   1.380       .  A
C207        H210   1.070       .  S
C208        C994   1.483       .  S
C211       C1911   1.501       .  S
C211        N212   1.362       .  A
C211        N216   1.359       .  A
N212        C213   1.363       .  A
C213       C1162   1.511       .  S
C213        N214   1.363       .  A
N214        C215   1.361       .  A
C215        C938   1.497       .  S
C215        N216   1.358       .  A
C217       C1883   1.484       .  S
C217        N218   1.361       .  A
C217        N222   1.357       .  A
N218        C219   1.363       .  A
C219        C966   1.509       .  S
C219        N220   1.363       .  A
N220        C221   1.360       .  A
C221       C1106   1.482       .  S
C221        N222   1.356       .  A
N223        C227   1.363   1_455  A
N223        C224   1.366       .  A
C224        C931   1.492       .  S
C224        C225   1.383       .  A
C225        C226   1.366   1_455  A
C225        H228   1.083       .  S
C226        C227   1.378       .  A
C226        H229   1.083       .  S
C227       C1050   1.486       .  S
O230        C246   1.279       .  A
O230       Zn236   2.045       .  S
C231        O247   1.279       .  A
C231        O244   1.274       .  A
C231        C903   1.516       .  S
O232        C245   1.276       .  A
O232       Cd239   2.097       .  S
O233        C251   1.275       .  A
O233       Cd242   2.057       .  S
O234        C248   1.278       .  A
O234       Cd238   2.099       .  S
O235        C246   1.275       .  A
O235       Cd238   2.054       .  S
Zn236       O247   2.060       .  S
Zn236       O249   2.058       .  S
Zn236       O241   1.970       .  S
O237        C248   1.278       .  A
O237       Cd242   2.102       .  S
Cd238       O240   2.088       .  S
Cd238       O241   2.008       .  S
Cd239       O243   2.092       .  S
Cd239       O252   2.087       .  S
Cd239       O241   2.017       .  S
O240        C250   1.276       .  A
O241       Cd242   2.000       .  S
Cd242       O244   2.072       .  S
O243        C250   1.279       .  A
C245        O249   1.278       .  A
C246        C875   1.485       .  S
C248        N284   1.451       .  S
C250       C1190   1.503       .  S
C251        O252   1.278       .  A
C251       C1127   1.489       .  S
C253        C882   1.497       .  S
C253        N254   1.359       .  A
C253        N258   1.362       .  A
N254        C255   1.357       .  A
C255        C847   1.497       .  S
C255        N256   1.363       .  A
N256        C257   1.363       .  A
C257        C819   1.501       .  S
C257        N258   1.362       .  A
C259        C910   1.506       .  S
C259        N260   1.364       .  A
C259        N264   1.361       .  A
N260        C261   1.363       .  A
C261        C770   1.503       .  S
C261        N262   1.362       .  A
N262        C263   1.362       .  A
C263        C791   1.486       .  S
C263        N264   1.358       .  A
N265        C269   1.358       .  A
N265        C266   1.360   1_545  A
C266        C854   1.493       .  S
C266        C267   1.382       .  A
C267        C268   1.371   1_565  A
C267        H270   1.085       .  S
C268        C269   1.380       .  A
C268        H271   1.085       .  S
C269        C735   1.487       .  S
C272       C1519   1.482       .  S
C272        N273   1.356       .  A
C272        N277   1.361       .  A
N273        C274   1.356       .  A
C274        C742   1.485       .  S
C274        N275   1.360       .  A
N275        C276   1.363       .  A
C276        C707   1.503       .  S
C276        N277   1.363       .  A
C278       C1498   1.502       .  S
C278        N279   1.363       .  A
C278        N283   1.365       .  A
N279        C280   1.360       .  A
C280        C679   1.491       .  S
C280        N281   1.359       .  A
N281        C282   1.358       .  A
C282        C658   1.495       .  S
C282        N283   1.364       .  A
N284        C288   1.367       .  A
N284        C285   1.366       .  A
C285        C623   1.485       .  S
C285        C286   1.379       .  A
C286        C287   1.362       .  A
C286        H289   1.083       .  S
C287        C288   1.380       .  A
C287        H290   1.083       .  S
C288        C686   1.487       .  S
C291       C1743   1.499       .  S
C291        N292   1.361       .  A
C291        N296   1.363       .  A
N292        C293   1.359       .  A
C293        C630   1.489       .  S
C293        N294   1.358       .  A
N294        C295   1.359       .  A
C295        C595   1.494       .  S
C295        N296   1.362       .  A
C297       C1715   1.481       .  S
C297        N298   1.357       .  A
C297        N302   1.356       .  A
N298        C299   1.360       .  A
C299        C539   1.499       .  S
C299        N300   1.362       .  A
N300        C301   1.362       .  A
C301        C567   1.493       .  S
C301        N302   1.357       .  A
N303        C307   1.360       .  A
N303        C304   1.359   1_455  A
C304        C798   1.485       .  S
C304        C305   1.380       .  A
C305        C306   1.369   1_655  A
C305        H308   1.082       .  S
C306        C307   1.383       .  A
C306        H309   1.081       .  S
C307        C574   1.490       .  S
N310        C314   1.358   1_655  A
N310        C311   1.361       .  A
C311        C518   1.494       .  S
C311        C312   1.383       .  A
C312        C313   1.370   1_655  A
C312        H315   1.080       .  S
C313        C314   1.380       .  A
C313        H316   1.080       .  S
C314        C483   1.487       .  S
C317       C1946   1.495       .  S
C317        N318   1.357       .  A
C317        N322   1.362       .  A
N318        C319   1.359       .  A
C319        C602   1.512       .  S
C319        N320   1.364       .  A
N320        C321   1.364       .  A
C321        C455   1.494       .  S
C321        N322   1.363       .  A
C323       C1967   1.488       .  S
C323        N324   1.361       .  A
C323        N328   1.361       .  A
N324        C325   1.360       .  A
C325        C490   1.484       .  S
C325        N326   1.358       .  A
N326        C327   1.361       .  A
C327        C546   1.497       .  S
C327        N328   1.361       .  A
C329       C1855   1.489       .  S
C329        N330   1.358       .  A
C329        N334   1.362       .  A
N330        C331   1.358       .  A
C331        C434   1.492       .  S
C331        N332   1.364       .  A
N332        C333   1.365       .  A
C333        C826   1.512       .  S
C333        N334   1.365       .  A
C335       C1834   1.504       .  S
C335        N336   1.362       .  A
C335        N340   1.364       .  A
N336        C337   1.360       .  A
C337        C511   1.505       .  S
C337        N338   1.362       .  A
N338        C339   1.363       .  A
C339        C763   1.510       .  S
C339        N340   1.364       .  A
N341        C345   1.362   1_565  A
N341        C342   1.367       .  A
C342        C427   1.496       .  S
C342        C343   1.383       .  A
C343        C344   1.369   1_565  A
C343        H346   1.081       .  S
C344        C345   1.378       .  A
C344        H347   1.082       .  S
C345        C406   1.487       .  S
C348       C1610   1.511       .  S
C348        N349   1.364       .  A
C348        N353   1.362       .  A
N349        C350   1.363       .  A
C350        C714   1.499       .  S
C350        N351   1.359       .  A
N351        C352   1.357       .  A
C352        C399   1.482       .  S
C352        N353   1.358       .  A
C354       C1638   1.487       .  S
C354        N355   1.360       .  A
C354        N359   1.359       .  A
N355        C356   1.360       .  A
C356        C371   1.491       .  S
C356        N357   1.363       .  A
N357        C358   1.364       .  A
C358        C651   1.504       .  S
C358        N359   1.361       .  A
N360        C364   1.366       .  A
N360        C361   1.367       .  A
C361        C378   1.492       .  S
C361        C362   1.380       .  A
C362        C363   1.367       .  A
C362        H365   1.080       .  S
C363        C364   1.382       .  A
C363        H366   1.081       .  S
C364        C462   1.495       .  S
C367        C368   1.416       .  A
C367        C372   1.414       .  A
C367        C385   1.451       .  S
C368        C373   1.509       .  S
C368        C369   1.413       .  A
C369        C370   1.417       .  A
C369        C374   1.449       .  S
C370        C371   1.413       .  A
C370        C386   1.449       .  S
C371        C372   1.411       .  A
C372        C375   1.451       .  S
C373        C376   1.413       .  A
C373        C380   1.414       .  A
C374        N391   1.157       .  T
C375        N393   1.157       .  T
C376        C377   1.414       .  A
C376        C381   1.450       .  S
C377        C378   1.413       .  A
C377        C383   1.449       .  S
C378        C379   1.413       .  A
C379        C380   1.416       .  A
C379        C382   1.449       .  S
C380        C384   1.449       .  S
C381        N388   1.157       .  T
C382        N389   1.157       .  T
C383        N387   1.157       .  T
C384        N390   1.157       .  T
C385        N394   1.157       .  T
C386        N392   1.157       .  T
C395        C396   1.412       .  A
C395        C400   1.415       .  A
C395        C413   1.449       .  S
C396        C401   1.500       .  S
C396        C397   1.414       .  A
C397        C398   1.409       .  A
C397        C402   1.451       .  S
C398        C399   1.410       .  A
C398        C414   1.451       .  S
C399        C400   1.413       .  A
C400        C403   1.450       .  S
C401        C404   1.411       .  A
C401        C408   1.413       .  A
C402        N419   1.157       .  T
C403        N421   1.157       .  T
C404        C405   1.411       .  A
C404        C409   1.451       .  S
C405        C406   1.413       .  A
C405        C411   1.451       .  S
C406        C407   1.410       .  A
C407        C408   1.413       .  A
C407        C410   1.450       .  S
C408        C412   1.449       .  S
C409        N416   1.157       .  T
C410        N417   1.157       .  T
C411        N415   1.157       .  T
C412        N418   1.157       .  T
C413        N422   1.157       .  T
C414        N420   1.157       .  T
C423        C424   1.411       .  A
C423        C428   1.414       .  A
C423        C441   1.450       .  S
C424        C429   1.508       .  S
C424        C425   1.413       .  A
C425        C426   1.417       .  A
C425        C430   1.450       .  S
C426        C427   1.414       .  A
C426        C442   1.449       .  S
C427        C428   1.416       .  A
C428        C431   1.450       .  S
C429        C432   1.413       .  A
C429        C436   1.416       .  A
C430        N447   1.157       .  T
C431        N449   1.157       .  T
C432        C433   1.417       .  A
C432        C437   1.449       .  S
C433        C434   1.415       .  A
C433        C439   1.450       .  S
C434        C435   1.412       .  A
C435        C436   1.413       .  A
C435        C438   1.450       .  S
C436        C440   1.451       .  S
C437        N444   1.157       .  T
C438        N445   1.157       .  T
C439        N443   1.157       .  T
C440        N446   1.157       .  T
C441        N450   1.157       .  T
C442        N448   1.157       .  T
C451        C452   1.416       .  A
C451        C456   1.413       .  A
C451        C469   1.452       .  S
C452        C457   1.509       .  S
C452        C453   1.414       .  A
C453        C454   1.418       .  A
C453        C458   1.450       .  S
C454        C455   1.414       .  A
C454        C470   1.449       .  S
C455        C456   1.413       .  A
C456        C459   1.451       .  S
C457        C460   1.413       .  A
C457        C464   1.414       .  A
C458        N475   1.157       .  T
C459        N477   1.157       .  T
C460        C461   1.412       .  A
C460        C465   1.450       .  S
C461        C462   1.414       .  A
C461        C467   1.451       .  S
C462        C463   1.414       .  A
C463        C464   1.416       .  A
C463        C466   1.449       .  S
C464        C468   1.449       .  S
C465        N472   1.157       .  T
C466        N473   1.157       .  T
C467        N471   1.157       .  T
C468        N474   1.157       .  T
C469        N478   1.157       .  T
C470        N476   1.157       .  T
C479        C480   1.413       .  A
C479        C484   1.414       .  A
C479        C497   1.449       .  S
C480        C485   1.501       .  S
C480        C481   1.410       .  A
C481        C482   1.411       .  A
C481        C486   1.450       .  S
C482        C483   1.414       .  A
C482        C498   1.451       .  S
C483        C484   1.410       .  A
C484        C487   1.449       .  S
C485        C488   1.411       .  A
C485        C492   1.413       .  A
C486        N503   1.157       .  T
C487        N505   1.157       .  T
C488        C489   1.416       .  A
C488        C493   1.448       .  S
C489        C490   1.413       .  A
C489        C495   1.450       .  S
C490        C491   1.411       .  A
C491        C492   1.410       .  A
C491        C494   1.451       .  S
C492        C496   1.451       .  S
C493        N500   1.157       .  T
C494        N501   1.157       .  T
C495        N499   1.157       .  T
C496        N502   1.157       .  T
C497        N506   1.157       .  T
C498        N504   1.157       .  T
C507        C508   1.409       .  A
C507        C512   1.418       .  A
C507        C525   1.450       .  S
C508        C513   1.506       .  S
C508        C509   1.412       .  A
C509        C510   1.414       .  A
C509        C514   1.452       .  S
C510        C511   1.419       .  A
C510        C526   1.451       .  S
C511        C512   1.421       .  A
C512        C515   1.450       .  S
C513        C516   1.412       .  A
C513        C520   1.411       .  A
C514        N531   1.157       .  T
C515        N533   1.157       .  T
C516        C517   1.416       .  A
C516        C521   1.450       .  S
C517        C518   1.415       .  A
C517        C523   1.449       .  S
C518        C519   1.414       .  A
C519        C520   1.412       .  A
C519        C522   1.451       .  S
C520        C524   1.450       .  S
C521        N528   1.157       .  T
C522        N529   1.157       .  T
C523        N527   1.157       .  T
C524        N530   1.157       .  T
C525        N534   1.157       .  T
C526        N532   1.157       .  T
C535        C536   1.409       .  A
C535        C540   1.412       .  A
C535        C553   1.451       .  S
C536        C541   1.500       .  S
C536        C537   1.410       .  A
C537        C538   1.413       .  A
C537        C542   1.451       .  S
C538        C539   1.418       .  A
C538        C554   1.451       .  S
C539        C540   1.421       .  A
C540        C543   1.451       .  S
C541        C544   1.410       .  A
C541        C548   1.409       .  A
C542        N559   1.157       .  T
C543        N561   1.158       .  T
C544        C545   1.412       .  A
C544        C549   1.451       .  S
C545        C546   1.419       .  A
C545        C551   1.451       .  S
C546        C547   1.418       .  A
C547        C548   1.413       .  A
C547        C550   1.448       .  S
C548        C552   1.451       .  S
C549        N556   1.157       .  T
C550        N557   1.157       .  T
C551        N555   1.157       .  T
C552        N558   1.157       .  T
C553        N562   1.157       .  T
C554        N560   1.157       .  T
C563        C564   1.408       .  A
C563        C568   1.414       .  A
C563        C581   1.450       .  S
C564        C569   1.499       .  S
C564        C565   1.413       .  A
C565        C566   1.411       .  A
C565        C570   1.452       .  S
C566        C567   1.415       .  A
C566        C582   1.452       .  S
C567        C568   1.419       .  A
C568        C571   1.451       .  S
C569        C572   1.410       .  A
C569        C576   1.409       .  A
C570        N587   1.157       .  T
C571        N589   1.157       .  T
C572        C573   1.413       .  A
C572        C577   1.450       .  S
C573        C574   1.415       .  A
C573        C579   1.449       .  S
C574        C575   1.415       .  A
C575        C576   1.411       .  A
C575        C578   1.451       .  S
C576        C580   1.450       .  S
C577        N584   1.157       .  T
C578        N585   1.157       .  T
C579        N583   1.157       .  T
C580        N586   1.157       .  T
C581        N590   1.157       .  T
C582        N588   1.157       .  T
C591        C592   1.412       .  A
C591        C596   1.414       .  A
C591        C609   1.450       .  S
C592        C597   1.504       .  S
C592        C593   1.411       .  A
C593        C594   1.413       .  A
C593        C598   1.451       .  S
C594        C595   1.416       .  A
C594        C610   1.451       .  S
C595        C596   1.415       .  A
C596        C599   1.450       .  S
C597        C600   1.408       .  A
C597        C604   1.410       .  A
C598        N615   1.157       .  T
C599        N617   1.157       .  T
C600        C601   1.414       .  A
C600        C605   1.451       .  S
C601        C602   1.426       .  A
C601        C607   1.452       .  S
C602        C603   1.424       .  A
C603        C604   1.416       .  A
C603        C606   1.450       .  S
C604        C608   1.452       .  S
C605        N612   1.157       .  T
C606        N613   1.157       .  T
C607        N611   1.158       .  T
C608        N614   1.157       .  T
C609        N618   1.157       .  T
C610        N616   1.157       .  T
C619        C620   1.411       .  A
C619        C624   1.413       .  A
C619        C637   1.450       .  S
C620        C625   1.500       .  S
C620        C621   1.410       .  A
C621        C622   1.412       .  A
C621        C626   1.450       .  S
C622        C623   1.412       .  A
C622        C638   1.449       .  S
C623        C624   1.412       .  A
C624        C627   1.450       .  S
C625        C628   1.410       .  A
C625        C632   1.413       .  A
C626        N643   1.157       .  T
C627        N645   1.157       .  T
C628        C629   1.414       .  A
C628        C633   1.449       .  S
C629        C630   1.415       .  A
C629        C635   1.450       .  S
C630        C631   1.414       .  A
C631        C632   1.411       .  A
C631        C634   1.452       .  S
C632        C636   1.452       .  S
C633        N640   1.157       .  T
C634        N641   1.157       .  T
C635        N639   1.157       .  T
C636        N642   1.157       .  T
C637        N646   1.157       .  T
C638        N644   1.157       .  T
C647        C648   1.413       .  A
C647        C652   1.417       .  A
C647        C665   1.450       .  S
C648        C653   1.510       .  S
C648        C649   1.412       .  A
C649        C650   1.415       .  A
C649        C654   1.451       .  S
C650        C651   1.419       .  A
C650        C666   1.451       .  S
C651        C652   1.419       .  A
C652        C655   1.450       .  S
C653        C656   1.414       .  A
C653        C660   1.414       .  A
C654        N671   1.157       .  T
C655        N673   1.157       .  T
C656        C657   1.416       .  A
C656        C661   1.450       .  S
C657        C658   1.414       .  A
C657        C663   1.450       .  S
C658        C659   1.415       .  A
C659        C660   1.415       .  A
C659        C662   1.451       .  S
C660        C664   1.450       .  S
C661        N668   1.157       .  T
C662        N669   1.157       .  T
C663        N667   1.157       .  T
C664        N670   1.157       .  T
C665        N674   1.157       .  T
C666        N672   1.157       .  T
C675        C676   1.411       .  A
C675        C680   1.416       .  A
C675        C693   1.449       .  S
C676        C681   1.503       .  S
C676        C677   1.413       .  A
C677        C678   1.411       .  A
C677        C682   1.451       .  S
C678        C679   1.414       .  A
C678        C694   1.452       .  S
C679        C680   1.415       .  A
C680        C683   1.449       .  S
C681        C684   1.413       .  A
C681        C688   1.411       .  A
C682        N699   1.157       .  T
C683        N701   1.157       .  T
C684        C685   1.415       .  A
C684        C689   1.449       .  S
C685        C686   1.412       .  A
C685        C691   1.450       .  S
C686        C687   1.413       .  A
C687        C688   1.411       .  A
C687        C690   1.451       .  S
C688        C692   1.450       .  S
C689        N696   1.157       .  T
C690        N697   1.157       .  T
C691        N695   1.157       .  T
C692        N698   1.157       .  T
C693        N702   1.157       .  T
C694        N700   1.157       .  T
C703        C704   1.409       .  A
C703        C708   1.415       .  A
C703        C721   1.450       .  S
C704        C709   1.503       .  S
C704        C705   1.409       .  A
C705        C706   1.414       .  A
C705        C710   1.451       .  S
C706        C707   1.420       .  A
C706        C722   1.449       .  S
C707        C708   1.421       .  A
C708        C711   1.451       .  S
C709        C712   1.410       .  A
C709        C716   1.411       .  A
C710        N727   1.157       .  T
C711        N729   1.157       .  T
C712        C713   1.415       .  A
C712        C717   1.451       .  S
C713        C714   1.421       .  A
C713        C719   1.451       .  S
C714        C715   1.417       .  A
C715        C716   1.414       .  A
C715        C718   1.450       .  S
C716        C720   1.450       .  S
C717        N724   1.157       .  T
C718        N725   1.157       .  T
C719        N723   1.157       .  T
C720        N726   1.157       .  T
C721        N730   1.157       .  T
C722        N728   1.157       .  T
C731        C732   1.409       .  A
C731        C736   1.410       .  A
C731        C749   1.451       .  S
C732        C737   1.499       .  S
C732        C733   1.411       .  A
C733        C734   1.413       .  A
C733        C738   1.449       .  S
C734        C735   1.412       .  A
C734        C750   1.450       .  S
C735        C736   1.413       .  A
C736        C739   1.447       .  S
C737        C740   1.414       .  A
C737        C744   1.410       .  A
C738        N755   1.157       .  T
C739        N757   1.156       .  T
C740        C741   1.411       .  A
C740        C745   1.452       .  S
C741        C742   1.411       .  A
C741        C747   1.451       .  S
C742        C743   1.414       .  A
C743        C744   1.414       .  A
C743        C746   1.450       .  S
C744        C748   1.450       .  S
C745        N752   1.157       .  T
C746        N753   1.157       .  T
C747        N751   1.157       .  T
C748        N754   1.157       .  T
C749        N758   1.157       .  T
C750        N756   1.157       .  T
C759        C760   1.411       .  A
C759        C764   1.418       .  A
C759        C777   1.451       .  S
C760        C765   1.510       .  S
C760        C761   1.410       .  A
C761        C762   1.417       .  A
C761        C766   1.450       .  S
C762        C763   1.422       .  A
C762        C778   1.451       .  S
C763        C764   1.422       .  A
C764        C767   1.450       .  S
C765        C768   1.411       .  A
C765        C772   1.412       .  A
C766        N783   1.157       .  T
C767        N785   1.157       .  T
C768        C769   1.416       .  A
C768        C773   1.451       .  S
C769        C770   1.418       .  A
C769        C775   1.449       .  S
C770        C771   1.418       .  A
C771        C772   1.418       .  A
C771        C774   1.450       .  S
C772        C776   1.449       .  S
C773        N780   1.157       .  T
C774        N781   1.157       .  T
C775        N779   1.157       .  T
C776        N782   1.157       .  T
C777        N786   1.157       .  T
C778        N784   1.157       .  T
C787        C788   1.411       .  A
C787        C792   1.417       .  A
C787        C805   1.449       .  S
C788        C793   1.500       .  S
C788        C789   1.413       .  A
C789        C790   1.410       .  A
C789        C794   1.451       .  S
C790        C791   1.410       .  A
C790        C806   1.450       .  S
C791        C792   1.415       .  A
C792        C795   1.449       .  S
C793        C796   1.412       .  A
C793        C800   1.410       .  A
C794        N811   1.157       .  T
C795        N813   1.157       .  T
C796        C797   1.414       .  A
C796        C801   1.449       .  S
C797        C798   1.410       .  A
C797        C803   1.449       .  S
C798        C799   1.413       .  A
C799        C800   1.410       .  A
C799        C802   1.451       .  S
C800        C804   1.450       .  S
C801        N808   1.157       .  T
C802        N809   1.157       .  T
C803        N807   1.157       .  T
C804        N810   1.157       .  T
C805        N814   1.157       .  T
C806        N812   1.157       .  T
C815        C816   1.412       .  A
C815        C820   1.417       .  A
C815        C833   1.450       .  S
C816        C821   1.509       .  S
C816        C817   1.411       .  A
C817        C818   1.416       .  A
C817        C822   1.450       .  S
C818        C819   1.418       .  A
C818        C834   1.451       .  S
C819        C820   1.418       .  A
C820        C823   1.451       .  S
C821        C824   1.410       .  A
C821        C828   1.410       .  A
C822        N839   1.157       .  T
C823        N841   1.157       .  T
C824        C825   1.418       .  A
C824        C829   1.451       .  S
C825        C826   1.423       .  A
C825        C831   1.451       .  S
C826        C827   1.422       .  A
C827        C828   1.417       .  A
C827        C830   1.449       .  S
C828        C832   1.451       .  S
C829        N836   1.157       .  T
C830        N837   1.157       .  T
C831        N835   1.157       .  T
C832        N838   1.157       .  T
C833        N842   1.157       .  T
C834        N840   1.157       .  T
C843        C844   1.413       .  A
C843        C848   1.412       .  A
C843        C861   1.451       .  S
C844        C849   1.503       .  S
C844        C845   1.409       .  A
C845        C846   1.416       .  A
C845        C850   1.450       .  S
C846        C847   1.419       .  A
C846        C862   1.450       .  S
C847        C848   1.416       .  A
C848        C851   1.451       .  S
C849        C852   1.410       .  A
C849        C856   1.410       .  A
C850        N867   1.157       .  T
C851        N869   1.157       .  T
C852        C853   1.413       .  A
C852        C857   1.449       .  S
C853        C854   1.414       .  A
C853        C859   1.450       .  S
C854        C855   1.415       .  A
C855        C856   1.414       .  A
C855        C858   1.446       .  S
C856        C860   1.451       .  S
C857        N864   1.157       .  T
C858        N865   1.156       .  T
C859        N863   1.157       .  T
C860        N866   1.157       .  T
C861        N870   1.157       .  T
C862        N868   1.157       .  T
C871        C872   1.410       .  A
C871        C876   1.409       .  A
C871        C889   1.451       .  S
C872        C877   1.497       .  S
C872        C873   1.412       .  A
C873        C874   1.412       .  A
C873        C878   1.450       .  S
C874        C875   1.413       .  A
C874        C890   1.450       .  S
C875        C876   1.416       .  A
C876        C879   1.453       .  S
C877        C880   1.410       .  A
C877        C884   1.408       .  A
C878        N895   1.157       .  T
C879        N897   1.158       .  T
C880        C881   1.413       .  A
C880        C885   1.451       .  S
C881        C882   1.418       .  A
C881        C887   1.450       .  S
C882        C883   1.421       .  A
C883        C884   1.411       .  A
C883        C886   1.451       .  S
C884        C888   1.451       .  S
C885        N892   1.157       .  T
C886        N893   1.157       .  T
C887        N891   1.157       .  T
C888        N894   1.157       .  T
C889        N898   1.157       .  T
C890        N896   1.157       .  T
C899        C900   1.409       .  A
C899        C904   1.418       .  A
C899        C917   1.451       .  S
C900        C905   1.505       .  S
C900        C901   1.407       .  A
C901        C902   1.414       .  A
C901        C906   1.453       .  S
C902        C903   1.427       .  A
C902        C918   1.450       .  S
C903        C904   1.425       .  A
C904        C907   1.450       .  S
C905        C908   1.410       .  A
C905        C912   1.409       .  A
C906        N923   1.157       .  T
C907        N925   1.157       .  T
C908        C909   1.415       .  A
C908        C913   1.451       .  S
C909        C910   1.421       .  A
C909        C915   1.451       .  S
C910        C911   1.422       .  A
C911        C912   1.415       .  A
C911        C914   1.451       .  S
C912        C916   1.451       .  S
C913        N920   1.157       .  T
C914        N921   1.157       .  T
C915        N919   1.158       .  T
C916        N922   1.157       .  T
C917        N926   1.157       .  T
C918        N924   1.156       .  T
C927        C928   1.409       .  A
C927        C932   1.412       .  A
C927        C945   1.450       .  S
C928        C933   1.503       .  S
C928        C929   1.411       .  A
C929        C930   1.416       .  A
C929        C934   1.448       .  S
C930        C931   1.414       .  A
C930        C946   1.449       .  S
C931        C932   1.415       .  A
C932        C935   1.450       .  S
C933        C936   1.409       .  A
C933        C940   1.413       .  A
C934        N951   1.157       .  T
C935        N953   1.157       .  T
C936        C937   1.416       .  A
C936        C941   1.449       .  S
C937        C938   1.419       .  A
C937        C943   1.450       .  S
C938        C939   1.416       .  A
C939        C940   1.413       .  A
C939        C942   1.451       .  S
C940        C944   1.452       .  S
C941        N948   1.157       .  T
C942        N949   1.157       .  T
C943        N947   1.157       .  T
C944        N950   1.157       .  T
C945        N954   1.157       .  T
C946        N952   1.157       .  T
C955        C956   1.411       .  A
C955        C960   1.411       .  A
C955        C973   1.450       .  S
C956        C961   1.504       .  S
C956        C957   1.412       .  A
C957        C958   1.414       .  A
C957        C962   1.450       .  S
C958        C959   1.414       .  A
C958        C974   1.447       .  S
C959        C960   1.415       .  A
C960        C963   1.451       .  S
C961        C964   1.411       .  A
C961        C968   1.408       .  A
C962        N979   1.157       .  T
C963        N981   1.157       .  T
C964        C965   1.413       .  A
C964        C969   1.453       .  S
C965        C966   1.423       .  A
C965        C971   1.451       .  S
C966        C967   1.424       .  A
C967        C968   1.416       .  A
C967        C970   1.449       .  S
C968        C972   1.451       .  S
C969        N976   1.157       .  T
C970        N977   1.157       .  T
C971        N975   1.157       .  T
C972        N978   1.157       .  T
C973        N982   1.157       .  T
C974        N980   1.157       .  T
C983        C984   1.409       .  A
C983        C988   1.414       .  A
C983       C1001   1.450       .  S
C984        C989   1.498       .  S
C984        C985   1.413       .  A
C985        C986   1.409       .  A
C985        C990   1.452       .  S
C986        C987   1.415       .  A
C986       C1002   1.452       .  S
C987        C988   1.416       .  A
C988        C991   1.450       .  S
C989        C992   1.412       .  A
C989        C996   1.410       .  A
C990       N1007   1.157       .  T
C991       N1009   1.157       .  T
C992        C993   1.411       .  A
C992        C997   1.450       .  S
C993        C994   1.411       .  A
C993        C999   1.451       .  S
C994        C995   1.411       .  A
C995        C996   1.410       .  A
C995        C998   1.448       .  S
C996       C1000   1.450       .  S
C997       N1004   1.157       .  T
C998       N1005   1.156       .  T
C999       N1003   1.157       .  T
C1000      N1006   1.157       .  T
C1001      N1010   1.157       .  T
C1002      N1008   1.157       .  T
C1011      C1012   1.411       .  A
C1011      C1016   1.415       .  A
C1011      C1029   1.448       .  S
C1012      C1017   1.506       .  S
C1012      C1013   1.414       .  A
C1013      C1014   1.413       .  A
C1013      C1018   1.450       .  S
C1014      C1015   1.412       .  A
C1014      C1030   1.451       .  S
C1015      C1016   1.413       .  A
C1016      C1019   1.450       .  S
C1017      C1020   1.411       .  A
C1017      C1024   1.414       .  A
C1018      N1035   1.157       .  T
C1019      N1037   1.157       .  T
C1020      C1021   1.411       .  A
C1020      C1025   1.451       .  S
C1021      C1022   1.416       .  A
C1021      C1027   1.451       .  S
C1022      C1023   1.411       .  A
C1023      C1024   1.418       .  A
C1023      C1026   1.449       .  S
C1024      C1028   1.449       .  S
C1025      N1032   1.157       .  T
C1026      N1033   1.157       .  T
C1027      N1031   1.157       .  T
C1028      N1034   1.157       .  T
C1029      N1038   1.156       .  T
C1030      N1036   1.157       .  T
C1039      C1040   1.414       .  A
C1039      C1044   1.409       .  A
C1039      C1057   1.451       .  S
C1040      C1045   1.500       .  S
C1040      C1041   1.412       .  A
C1041      C1042   1.416       .  A
C1041      C1046   1.450       .  S
C1042      C1043   1.413       .  A
C1042      C1058   1.449       .  S
C1043      C1044   1.410       .  A
C1044      C1047   1.451       .  S
C1045      C1048   1.413       .  A
C1045      C1052   1.411       .  A
C1046      N1063   1.157       .  T
C1047      N1065   1.157       .  T
C1048      C1049   1.412       .  A
C1048      C1053   1.449       .  S
C1049      C1050   1.410       .  A
C1049      C1055   1.449       .  S
C1050      C1051   1.412       .  A
C1051      C1052   1.411       .  A
C1051      C1054   1.451       .  S
C1052      C1056   1.450       .  S
C1053      N1060   1.157       .  T
C1054      N1061   1.157       .  T
C1055      N1059   1.157       .  T
C1056      N1062   1.157       .  T
C1057      N1066   1.157       .  T
C1058      N1064   1.157       .  T
C1067      C1068   1.413       .  A
C1067      C1072   1.416       .  A
C1067      C1085   1.449       .  S
C1068      C1073   1.505       .  S
C1068      C1069   1.415       .  A
C1069      C1070   1.412       .  A
C1069      C1074   1.451       .  S
C1070      C1071   1.411       .  A
C1070      C1086   1.450       .  S
C1071      C1072   1.413       .  A
C1072      C1075   1.449       .  S
C1073      C1076   1.412       .  A
C1073      C1080   1.413       .  A
C1074      N1091   1.157       .  T
C1075      N1093   1.157       .  T
C1076      C1077   1.412       .  A
C1076      C1081   1.450       .  S
C1077      C1078   1.412       .  A
C1077      C1083   1.451       .  S
C1078      C1079   1.414       .  A
C1079      C1080   1.415       .  A
C1079      C1082   1.449       .  S
C1080      C1084   1.450       .  S
C1081      N1088   1.157       .  T
C1082      N1089   1.157       .  T
C1083      N1087   1.157       .  T
C1084      N1090   1.157       .  T
C1085      N1094   1.157       .  T
C1086      N1092   1.157       .  T
C1095      C1096   1.407       .  A
C1095      C1100   1.413       .  A
C1095      C1113   1.452       .  S
C1096      C1101   1.498       .  S
C1096      C1097   1.407       .  A
C1097      C1098   1.413       .  A
C1097      C1102   1.452       .  S
C1098      C1099   1.427       .  A
C1098      C1114   1.452       .  S
C1099      C1100   1.425       .  A
C1100      C1103   1.451       .  S
C1101      C1104   1.411       .  A
C1101      C1108   1.411       .  A
C1102      N1119   1.157       .  T
C1103      N1121   1.158       .  T
C1104      C1105   1.412       .  A
C1104      C1109   1.450       .  S
C1105      C1106   1.412       .  A
C1105      C1111   1.451       .  S
C1106      C1107   1.412       .  A
C1107      C1108   1.411       .  A
C1107      C1110   1.450       .  S
C1108      C1112   1.450       .  S
C1109      N1116   1.157       .  T
C1110      N1117   1.157       .  T
C1111      N1115   1.157       .  T
C1112      N1118   1.157       .  T
C1113      N1122   1.157       .  T
C1114      N1120   1.158       .  T
C1123      C1124   1.412       .  A
C1123      C1128   1.414       .  A
C1123      C1141   1.450       .  S
C1124      C1129   1.499       .  S
C1124      C1125   1.409       .  A
C1125      C1126   1.408       .  A
C1125      C1130   1.451       .  S
C1126      C1127   1.417       .  A
C1126      C1142   1.453       .  S
C1127      C1128   1.416       .  A
C1128      C1131   1.451       .  S
C1129      C1132   1.409       .  A
C1129      C1136   1.409       .  A
C1130      N1147   1.157       .  T
C1131      N1149   1.158       .  T
C1132      C1133   1.413       .  A
C1132      C1137   1.452       .  S
C1133      C1134   1.422       .  A
C1133      C1139   1.451       .  S
C1134      C1135   1.422       .  A
C1135      C1136   1.412       .  A
C1135      C1138   1.451       .  S
C1136      C1140   1.452       .  S
C1137      N1144   1.157       .  T
C1138      N1145   1.157       .  T
C1139      N1143   1.157       .  T
C1140      N1146   1.157       .  T
C1141      N1150   1.157       .  T
C1142      N1148   1.158       .  T
C1151      C1152   1.412       .  A
C1151      C1156   1.414       .  A
C1151      C1169   1.450       .  S
C1152      C1157   1.505       .  S
C1152      C1153   1.412       .  A
C1153      C1154   1.415       .  A
C1153      C1158   1.450       .  S
C1154      C1155   1.415       .  A
C1154      C1170   1.450       .  S
C1155      C1156   1.416       .  A
C1156      C1159   1.451       .  S
C1157      C1160   1.409       .  A
C1157      C1164   1.409       .  A
C1158      N1175   1.157       .  T
C1159      N1177   1.157       .  T
C1160      C1161   1.415       .  A
C1160      C1165   1.451       .  S
C1161      C1162   1.423       .  A
C1161      C1167   1.451       .  S
C1162      C1163   1.424       .  A
C1163      C1164   1.416       .  A
C1163      C1166   1.451       .  S
C1164      C1168   1.451       .  S
C1165      N1172   1.157       .  T
C1166      N1173   1.158       .  T
C1167      N1171   1.158       .  T
C1168      N1174   1.157       .  T
C1169      N1178   1.157       .  T
C1170      N1176   1.157       .  T
C1179      C1180   1.414       .  A
C1179      C1184   1.416       .  A
C1179      C1197   1.450       .  S
C1180      C1185   1.508       .  S
C1180      C1181   1.413       .  A
C1181      C1182   1.414       .  A
C1181      C1186   1.450       .  S
C1182      C1183   1.414       .  A
C1182      C1198   1.451       .  S
C1183      C1184   1.414       .  A
C1184      C1187   1.450       .  S
C1185      C1188   1.414       .  A
C1185      C1192   1.411       .  A
C1186      N1203   1.157       .  T
C1187      N1205   1.157       .  T
C1188      C1189   1.417       .  A
C1188      C1193   1.450       .  S
C1189      C1190   1.417       .  A
C1189      C1195   1.449       .  S
C1190      C1191   1.416       .  A
C1191      C1192   1.413       .  A
C1191      C1194   1.445       .  S
C1192      C1196   1.451       .  S
C1193      N1200   1.157       .  T
C1194      N1201   1.155       .  T
C1195      N1199   1.157       .  T
C1196      N1202   1.157       .  T
C1197      N1206   1.157       .  T
C1198      N1204   1.157       .  T
C1207      C1208   1.411       .  A
C1207      C1212   1.413       .  A
C1207      C1225   1.450       .  S
C1208      C1213   1.499       .  S
C1208      C1209   1.410       .  A
C1209      C1210   1.411       .  A
C1209      C1214   1.450       .  S
C1210      C1211   1.412       .  A
C1210      C1226   1.450       .  S
C1211      C1212   1.413       .  A
C1212      C1215   1.448       .  S
C1213      C1216   1.412       .  A
C1213      C1220   1.409       .  A
C1214      N1231   1.157       .  T
C1215      N1233   1.157       .  T
C1216      C1217   1.410       .  A
C1216      C1221   1.452       .  S
C1217      C1218   1.415       .  A
C1217      C1223   1.452       .  S
C1218      C1219   1.416       .  A
C1219      C1220   1.415       .  A
C1219      C1222   1.450       .  S
C1220      C1224   1.449       .  S
C1221      N1228   1.157       .  T
C1222      N1229   1.157       .  T
C1223      N1227   1.157       .  T
C1224      N1230   1.157       .  T
C1225      N1234   1.157       .  T
C1226      N1232   1.157       .  T
C1235      C1236   1.410       .  A
C1235      C1240   1.413       .  A
C1235      C1253   1.451       .  S
C1236      C1241   1.499       .  S
C1236      C1237   1.409       .  A
C1237      C1238   1.413       .  A
C1237      C1242   1.451       .  S
C1238      C1239   1.420       .  A
C1238      C1254   1.451       .  S
C1239      C1240   1.419       .  A
C1240      C1243   1.451       .  S
C1241      C1244   1.410       .  A
C1241      C1248   1.411       .  A
C1242      N1259   1.157       .  T
C1243      N1261   1.157       .  T
C1244      C1245   1.411       .  A
C1244      C1249   1.450       .  S
C1245      C1246   1.415       .  A
C1245      C1251   1.451       .  S
C1246      C1247   1.417       .  A
C1247      C1248   1.414       .  A
C1247      C1250   1.451       .  S
C1248      C1252   1.450       .  S
C1249      N1256   1.157       .  T
C1250      N1257   1.157       .  T
C1251      N1255   1.157       .  T
C1252      N1258   1.157       .  T
C1253      N1262   1.157       .  T
C1254      N1260   1.157       .  T
C1263      C1264   1.410       .  A
C1263      C1268   1.408       .  A
C1263      C1281   1.452       .  S
C1264      C1269   1.496       .  S
C1264      C1265   1.412       .  A
C1265      C1266   1.413       .  A
C1265      C1270   1.449       .  S
C1266      C1267   1.411       .  A
C1266      C1282   1.450       .  S
C1267      C1268   1.414       .  A
C1268      C1271   1.451       .  S
C1269      C1272   1.411       .  A
C1269      C1276   1.414       .  A
C1270      N1287   1.157       .  T
C1271      N1289   1.157       .  T
C1272      C1273   1.414       .  A
C1272      C1277   1.449       .  S
C1273      C1274   1.412       .  A
C1273      C1279   1.449       .  S
C1274      C1275   1.410       .  A
C1275      C1276   1.408       .  A
C1275      C1278   1.451       .  S
C1276      C1280   1.452       .  S
C1277      N1284   1.157       .  T
C1278      N1285   1.157       .  T
C1279      N1283   1.157       .  T
C1280      N1286   1.157       .  T
C1281      N1290   1.157       .  T
C1282      N1288   1.157       .  T
C1291      C1292   1.410       .  A
C1291      C1296   1.415       .  A
C1291      C1309   1.451       .  S
C1292      C1297   1.507       .  S
C1292      C1293   1.411       .  A
C1293      C1294   1.417       .  A
C1293      C1298   1.451       .  S
C1294      C1295   1.422       .  A
C1294      C1310   1.451       .  S
C1295      C1296   1.422       .  A
C1296      C1299   1.451       .  S
C1297      C1300   1.412       .  A
C1297      C1304   1.413       .  A
C1298      N1315   1.157       .  T
C1299      N1317   1.158       .  T
C1300      C1301   1.415       .  A
C1300      C1305   1.450       .  S
C1301      C1302   1.415       .  A
C1301      C1307   1.451       .  S
C1302      C1303   1.414       .  A
C1303      C1304   1.415       .  A
C1303      C1306   1.450       .  S
C1304      C1308   1.450       .  S
C1305      N1312   1.157       .  T
C1306      N1313   1.157       .  T
C1307      N1311   1.157       .  T
C1308      N1314   1.157       .  T
C1309      N1318   1.157       .  T
C1310      N1316   1.158       .  T
C1319      C1320   1.410       .  A
C1319      C1324   1.412       .  A
C1319      C1337   1.450       .  S
C1320      C1325   1.502       .  S
C1320      C1321   1.411       .  A
C1321      C1322   1.415       .  A
C1321      C1326   1.449       .  S
C1322      C1323   1.415       .  A
C1322      C1338   1.448       .  S
C1323      C1324   1.416       .  A
C1324      C1327   1.451       .  S
C1325      C1328   1.408       .  A
C1325      C1332   1.412       .  A
C1326      N1343   1.157       .  T
C1327      N1345   1.157       .  T
C1328      C1329   1.417       .  A
C1328      C1333   1.450       .  S
C1329      C1330   1.422       .  A
C1329      C1335   1.450       .  S
C1330      C1331   1.419       .  A
C1331      C1332   1.412       .  A
C1331      C1334   1.451       .  S
C1332      C1336   1.452       .  S
C1333      N1340   1.157       .  T
C1334      N1341   1.157       .  T
C1335      N1339   1.157       .  T
C1336      N1342   1.157       .  T
C1337      N1346   1.157       .  T
C1338      N1344   1.157       .  T
C1347      C1348   1.411       .  A
C1347      C1352   1.414       .  A
C1347      C1365   1.450       .  S
C1348      C1353   1.503       .  S
C1348      C1349   1.412       .  A
C1349      C1350   1.413       .  A
C1349      C1354   1.451       .  S
C1350      C1351   1.416       .  A
C1350      C1366   1.451       .  S
C1351      C1352   1.416       .  A
C1352      C1355   1.451       .  S
C1353      C1356   1.408       .  A
C1353      C1360   1.409       .  A
C1354      N1371   1.157       .  T
C1355      N1373   1.157       .  T
C1356      C1357   1.415       .  A
C1356      C1361   1.451       .  S
C1357      C1358   1.421       .  A
C1357      C1363   1.449       .  S
C1358      C1359   1.423       .  A
C1359      C1360   1.415       .  A
C1359      C1362   1.450       .  S
C1360      C1364   1.451       .  S
C1361      N1368   1.157       .  T
C1362      N1369   1.157       .  T
C1363      N1367   1.157       .  T
C1364      N1370   1.157       .  T
C1365      N1374   1.157       .  T
C1366      N1372   1.157       .  T
C1375      C1376   1.412       .  A
C1375      C1380   1.416       .  A
C1375      C1393   1.450       .  S
C1376      C1381   1.509       .  S
C1376      C1377   1.411       .  A
C1377      C1378   1.417       .  A
C1377      C1382   1.450       .  S
C1378      C1379   1.419       .  A
C1378      C1394   1.451       .  S
C1379      C1380   1.418       .  A
C1380      C1383   1.450       .  S
C1381      C1384   1.411       .  A
C1381      C1388   1.410       .  A
C1382      N1399   1.157       .  T
C1383      N1401   1.157       .  T
C1384      C1385   1.417       .  A
C1384      C1389   1.450       .  S
C1385      C1386   1.420       .  A
C1385      C1391   1.450       .  S
C1386      C1387   1.421       .  A
C1387      C1388   1.416       .  A
C1387      C1390   1.450       .  S
C1388      C1392   1.451       .  S
C1389      N1396   1.157       .  T
C1390      N1397   1.157       .  T
C1391      N1395   1.157       .  T
C1392      N1398   1.157       .  T
C1393      N1402   1.157       .  T
C1394      N1400   1.157       .  T
C1403      C1404   1.413       .  A
C1403      C1408   1.413       .  A
C1403      C1421   1.450       .  S
C1404      C1409   1.509       .  S
C1404      C1405   1.415       .  A
C1405      C1406   1.415       .  A
C1405      C1410   1.449       .  S
C1406      C1407   1.412       .  A
C1406      C1422   1.450       .  S
C1407      C1408   1.411       .  A
C1408      C1411   1.450       .  S
C1409      C1412   1.412       .  A
C1409      C1416   1.415       .  A
C1410      N1427   1.157       .  T
C1411      N1429   1.157       .  T
C1412      C1413   1.419       .  A
C1412      C1417   1.450       .  S
C1413      C1414   1.420       .  A
C1413      C1419   1.450       .  S
C1414      C1415   1.416       .  A
C1415      C1416   1.412       .  A
C1415      C1418   1.451       .  S
C1416      C1420   1.452       .  S
C1417      N1424   1.157       .  T
C1418      N1425   1.157       .  T
C1419      N1423   1.157       .  T
C1420      N1426   1.157       .  T
C1421      N1430   1.157       .  T
C1422      N1428   1.157       .  T
C1431      C1432   1.412       .  A
C1431      C1436   1.417       .  A
C1431      C1449   1.449       .  S
C1432      C1437   1.503       .  S
C1432      C1433   1.414       .  A
C1433      C1434   1.410       .  A
C1433      C1438   1.451       .  S
C1434      C1435   1.410       .  A
C1434      C1450   1.451       .  S
C1435      C1436   1.413       .  A
C1436      C1439   1.450       .  S
C1437      C1440   1.410       .  A
C1437      C1444   1.413       .  A
C1438      N1455   1.157       .  T
C1439      N1457   1.157       .  T
C1440      C1441   1.411       .  A
C1440      C1445   1.450       .  S
C1441      C1442   1.415       .  A
C1441      C1447   1.451       .  S
C1442      C1443   1.412       .  A
C1443      C1444   1.415       .  A
C1443      C1446   1.449       .  S
C1444      C1448   1.449       .  S
C1445      N1452   1.157       .  T
C1446      N1453   1.157       .  T
C1447      N1451   1.157       .  T
C1448      N1454   1.157       .  T
C1449      N1458   1.157       .  T
C1450      N1456   1.157       .  T
C1459      C1460   1.412       .  A
C1459      C1464   1.411       .  A
C1459      C1477   1.451       .  S
C1460      C1465   1.504       .  S
C1460      C1461   1.413       .  A
C1461      C1462   1.414       .  A
C1461      C1466   1.450       .  S
C1462      C1463   1.415       .  A
C1462      C1478   1.449       .  S
C1463      C1464   1.414       .  A
C1464      C1467   1.451       .  S
C1465      C1468   1.413       .  A
C1465      C1472   1.416       .  A
C1466      N1483   1.157       .  T
C1467      N1485   1.157       .  T
C1468      C1469   1.416       .  A
C1468      C1473   1.450       .  S
C1469      C1470   1.413       .  A
C1469      C1475   1.450       .  S
C1470      C1471   1.410       .  A
C1471      C1472   1.410       .  A
C1471      C1474   1.451       .  S
C1472      C1476   1.451       .  S
C1473      N1480   1.157       .  T
C1474      N1481   1.157       .  T
C1475      N1479   1.157       .  T
C1476      N1482   1.157       .  T
C1477      N1486   1.157       .  T
C1478      N1484   1.157       .  T
C1487      C1488   1.411       .  A
C1487      C1492   1.417       .  A
C1487      C1505   1.451       .  S
C1488      C1493   1.509       .  S
C1488      C1489   1.410       .  A
C1489      C1490   1.415       .  A
C1489      C1494   1.451       .  S
C1490      C1491   1.421       .  A
C1490      C1506   1.451       .  S
C1491      C1492   1.423       .  A
C1492      C1495   1.451       .  S
C1493      C1496   1.412       .  A
C1493      C1500   1.411       .  A
C1494      N1511   1.157       .  T
C1495      N1513   1.158       .  T
C1496      C1497   1.416       .  A
C1496      C1501   1.450       .  S
C1497      C1498   1.417       .  A
C1497      C1503   1.450       .  S
C1498      C1499   1.419       .  A
C1499      C1500   1.416       .  A
C1499      C1502   1.451       .  S
C1500      C1504   1.450       .  S
C1501      N1508   1.157       .  T
C1502      N1509   1.157       .  T
C1503      N1507   1.157       .  T
C1504      N1510   1.157       .  T
C1505      N1514   1.157       .  T
C1506      N1512   1.157       .  T
C1515      C1516   1.411       .  A
C1515      C1520   1.410       .  A
C1515      C1533   1.451       .  S
C1516      C1521   1.497       .  S
C1516      C1517   1.411       .  A
C1517      C1518   1.412       .  A
C1517      C1522   1.450       .  S
C1518      C1519   1.412       .  A
C1518      C1534   1.450       .  S
C1519      C1520   1.412       .  A
C1520      C1523   1.450       .  S
C1521      C1524   1.410       .  A
C1521      C1528   1.408       .  A
C1522      N1539   1.157       .  T
C1523      N1541   1.157       .  T
C1524      C1525   1.413       .  A
C1524      C1529   1.451       .  S
C1525      C1526   1.420       .  A
C1525      C1531   1.450       .  S
C1526      C1527   1.420       .  A
C1527      C1528   1.411       .  A
C1527      C1530   1.449       .  S
C1528      C1532   1.451       .  S
C1529      N1536   1.157       .  T
C1530      N1537   1.156       .  T
C1531      N1535   1.157       .  T
C1532      N1538   1.157       .  T
C1533      N1542   1.157       .  T
C1534      N1540   1.157       .  T
C1543      C1544   1.410       .  A
C1543      C1548   1.410       .  A
C1543      C1561   1.451       .  S
C1544      C1549   1.495       .  S
C1544      C1545   1.410       .  A
C1545      C1546   1.411       .  A
C1545      C1550   1.450       .  S
C1546      C1547   1.415       .  A
C1546      C1562   1.451       .  S
C1547      C1548   1.413       .  A
C1548      C1551   1.448       .  S
C1549      C1552   1.411       .  A
C1549      C1556   1.409       .  A
C1550      N1567   1.157       .  T
C1551      N1569   1.156       .  T
C1552      C1553   1.410       .  A
C1552      C1557   1.451       .  S
C1553      C1554   1.414       .  A
C1553      C1559   1.451       .  S
C1554      C1555   1.415       .  A
C1555      C1556   1.411       .  A
C1555      C1558   1.451       .  S
C1556      C1560   1.450       .  S
C1557      N1564   1.157       .  T
C1558      N1565   1.157       .  T
C1559      N1563   1.157       .  T
C1560      N1566   1.157       .  T
C1561      N1570   1.157       .  T
C1562      N1568   1.157       .  T
C1571      C1572   1.411       .  A
C1571      C1576   1.414       .  A
C1571      C1589   1.450       .  S
C1572      C1577   1.502       .  S
C1572      C1573   1.410       .  A
C1573      C1574   1.413       .  A
C1573      C1578   1.451       .  S
C1574      C1575   1.418       .  A
C1574      C1590   1.451       .  S
C1575      C1576   1.416       .  A
C1576      C1579   1.451       .  S
C1577      C1580   1.410       .  A
C1577      C1584   1.409       .  A
C1578      N1595   1.157       .  T
C1579      N1597   1.157       .  T
C1580      C1581   1.416       .  A
C1580      C1585   1.451       .  S
C1581      C1582   1.421       .  A
C1581      C1587   1.451       .  S
C1582      C1583   1.421       .  A
C1583      C1584   1.412       .  A
C1583      C1586   1.451       .  S
C1584      C1588   1.451       .  S
C1585      N1592   1.157       .  T
C1586      N1593   1.157       .  T
C1587      N1591   1.158       .  T
C1588      N1594   1.157       .  T
C1589      N1598   1.157       .  T
C1590      N1596   1.157       .  T
C1599      C1600   1.415       .  A
C1599      C1604   1.415       .  A
C1599      C1617   1.450       .  S
C1600      C1605   1.509       .  S
C1600      C1601   1.416       .  A
C1601      C1602   1.415       .  A
C1601      C1606   1.450       .  S
C1602      C1603   1.410       .  A
C1602      C1618   1.450       .  S
C1603      C1604   1.414       .  A
C1604      C1607   1.451       .  S
C1605      C1608   1.412       .  A
C1605      C1612   1.411       .  A
C1606      N1623   1.157       .  T
C1607      N1625   1.157       .  T
C1608      C1609   1.416       .  A
C1608      C1613   1.451       .  S
C1609      C1610   1.423       .  A
C1609      C1615   1.451       .  S
C1610      C1611   1.423       .  A
C1611      C1612   1.416       .  A
C1611      C1614   1.452       .  S
C1612      C1616   1.451       .  S
C1613      N1620   1.157       .  T
C1614      N1621   1.158       .  T
C1615      N1619   1.158       .  T
C1616      N1622   1.157       .  T
C1617      N1626   1.157       .  T
C1618      N1624   1.157       .  T
C1627      C1628   1.409       .  A
C1627      C1632   1.415       .  A
C1627      C1645   1.451       .  S
C1628      C1633   1.502       .  S
C1628      C1629   1.409       .  A
C1629      C1630   1.414       .  A
C1629      C1634   1.451       .  S
C1630      C1631   1.422       .  A
C1630      C1646   1.451       .  S
C1631      C1632   1.422       .  A
C1632      C1635   1.451       .  S
C1633      C1636   1.412       .  A
C1633      C1640   1.412       .  A
C1634      N1651   1.157       .  T
C1635      N1653   1.157       .  T
C1636      C1637   1.414       .  A
C1636      C1641   1.449       .  S
C1637      C1638   1.412       .  A
C1637      C1643   1.450       .  S
C1638      C1639   1.413       .  A
C1639      C1640   1.413       .  A
C1639      C1642   1.450       .  S
C1640      C1644   1.450       .  S
C1641      N1648   1.157       .  T
C1642      N1649   1.157       .  T
C1643      N1647   1.157       .  T
C1644      N1650   1.157       .  T
C1645      N1654   1.157       .  T
C1646      N1652   1.157   1_556  T
C1655      C1656   1.412       .  A
C1655      C1660   1.414       .  A
C1655      C1673   1.451       .  S
C1656      C1661   1.505       .  S
C1656      C1657   1.412       .  A
C1657      C1658   1.414       .  A
C1657      C1662   1.451       .  S
C1658      C1659   1.417       .  A
C1658      C1674   1.449       .  S
C1659      C1660   1.416       .  A
C1660      C1663   1.449       .  S
C1661      C1664   1.412       .  A
C1661      C1668   1.411       .  A
C1662      N1679   1.157       .  T
C1663      N1681   1.157       .  T
C1664      C1665   1.414       .  A
C1664      C1669   1.451       .  S
C1665      C1666   1.418       .  A
C1665      C1671   1.451       .  S
C1666      C1667   1.419       .  A
C1667      C1668   1.414       .  A
C1667      C1670   1.451       .  S
C1668      C1672   1.451       .  S
C1669      N1676   1.157       .  T
C1670      N1677   1.157       .  T
C1671      N1675   1.157       .  T
C1672      N1678   1.157       .  T
C1673      N1682   1.157       .  T
C1674      N1680   1.156       .  T
C1683      C1684   1.410       .  A
C1683      C1688   1.412       .  A
C1683      C1701   1.450       .  S
C1684      C1689   1.498       .  S
C1684      C1685   1.408       .  A
C1685      C1686   1.411       .  A
C1685      C1690   1.451       .  S
C1686      C1687   1.420       .  A
C1686      C1702   1.451       .  S
C1687      C1688   1.419       .  A
C1688      C1691   1.451       .  S
C1689      C1692   1.410       .  A
C1689      C1696   1.409       .  A
C1690      N1707   1.157       .  T
C1691      N1709   1.158       .  T
C1692      C1693   1.413       .  A
C1692      C1697   1.451       .  S
C1693      C1694   1.418       .  A
C1693      C1699   1.451       .  S
C1694      C1695   1.419       .  A
C1695      C1696   1.411       .  A
C1695      C1698   1.452       .  S
C1696      C1700   1.451       .  S
C1697      N1704   1.157       .  T
C1698      N1705   1.158       .  T
C1699      N1703   1.157       .  T
C1700      N1706   1.157       .  T
C1701      N1710   1.157       .  T
C1702      N1708   1.157       .  T
C1711      C1712   1.411       .  A
C1711      C1716   1.410       .  A
C1711      C1729   1.451       .  S
C1712      C1717   1.496       .  S
C1712      C1713   1.412       .  A
C1713      C1714   1.411       .  A
C1713      C1718   1.451       .  S
C1714      C1715   1.412       .  A
C1714      C1730   1.451       .  S
C1715      C1716   1.414       .  A
C1716      C1719   1.451       .  S
C1717      C1720   1.408       .  A
C1717      C1724   1.407       .  A
C1718      N1735   1.157       .  T
C1719      N1737   1.157       .  T
C1720      C1721   1.413       .  A
C1720      C1725   1.452       .  S
C1721      C1722   1.425       .  A
C1721      C1727   1.451       .  S
C1722      C1723   1.424       .  A
C1723      C1724   1.411       .  A
C1723      C1726   1.452       .  S
C1724      C1728   1.452       .  S
C1725      N1732   1.157       .  T
C1726      N1733   1.157       .  T
C1727      N1731   1.157       .  T
C1728      N1734   1.157       .  T
C1729      N1738   1.157       .  T
C1730      N1736   1.157       .  T
C1739      C1740   1.411       .  A
C1739      C1744   1.413       .  A
C1739      C1757   1.451       .  S
C1740      C1745   1.504       .  S
C1740      C1741   1.412       .  A
C1741      C1742   1.414       .  A
C1741      C1746   1.451       .  S
C1742      C1743   1.418       .  A
C1742      C1758   1.451       .  S
C1743      C1744   1.419       .  A
C1744      C1747   1.451       .  S
C1745      C1748   1.412       .  A
C1745      C1752   1.412       .  A
C1746      N1763   1.157       .  T
C1747      N1765   1.157       .  T
C1748      C1749   1.414       .  A
C1748      C1753   1.451       .  S
C1749      C1750   1.417       .  A
C1749      C1755   1.451       .  S
C1750      C1751   1.416       .  A
C1751      C1752   1.413       .  A
C1751      C1754   1.451       .  S
C1752      C1756   1.451       .  S
C1753      N1760   1.157       .  T
C1754      N1761   1.157       .  T
C1755      N1759   1.157       .  T
C1756      N1762   1.157       .  T
C1757      N1766   1.157       .  T
C1758      N1764   1.157       .  T
C1767      C1768   1.413       .  A
C1767      C1772   1.414       .  A
C1767      C1785   1.451       .  S
C1768      C1773   1.507       .  S
C1768      C1769   1.413       .  A
C1769      C1770   1.415       .  A
C1769      C1774   1.450       .  S
C1770      C1771   1.416       .  A
C1770      C1786   1.451       .  S
C1771      C1772   1.416       .  A
C1772      C1775   1.451       .  S
C1773      C1776   1.413       .  A
C1773      C1780   1.414       .  A
C1774      N1791   1.157       .  T
C1775      N1793   1.157       .  T
C1776      C1777   1.415       .  A
C1776      C1781   1.450       .  S
C1777      C1778   1.413       .  A
C1777      C1783   1.449       .  S
C1778      C1779   1.413       .  A
C1779      C1780   1.414       .  A
C1779      C1782   1.451       .  S
C1780      C1784   1.450       .  S
C1781      N1788   1.157       .  T
C1782      N1789   1.157       .  T
C1783      N1787   1.157       .  T
C1784      N1790   1.157       .  T
C1785      N1794   1.157       .  T
C1786      N1792   1.157       .  T
C1795      C1796   1.413       .  A
C1795      C1800   1.411       .  A
C1795      C1813   1.450       .  S
C1796      C1801   1.499       .  S
C1796      C1797   1.411       .  A
C1797      C1798   1.411       .  A
C1797      C1802   1.450       .  S
C1798      C1799   1.412       .  A
C1798      C1814   1.449       .  S
C1799      C1800   1.410       .  A
C1800      C1803   1.451       .  S
C1801      C1804   1.411       .  A
C1801      C1808   1.412       .  A
C1802      N1819   1.157       .  T
C1803      N1821   1.157       .  T
C1804      C1805   1.411       .  A
C1804      C1809   1.451       .  S
C1805      C1806   1.413       .  A
C1805      C1811   1.451       .  S
C1806      C1807   1.412       .  A
C1807      C1808   1.413       .  A
C1807      C1810   1.449       .  S
C1808      C1812   1.451       .  S
C1809      N1816   1.157       .  T
C1810      N1817   1.157       .  T
C1811      N1815   1.157       .  T
C1812      N1818   1.157       .  T
C1813      N1822   1.157       .  T
C1814      N1820   1.157       .  T
C1823      C1824   1.412       .  A
C1823      C1828   1.417       .  A
C1823      C1841   1.450       .  S
C1824      C1829   1.511       .  S
C1824      C1825   1.413       .  A
C1825      C1826   1.417       .  A
C1825      C1830   1.450       .  S
C1826      C1827   1.417       .  A
C1826      C1842   1.450       .  S
C1827      C1828   1.419       .  A
C1828      C1831   1.451       .  S
C1829      C1832   1.413       .  A
C1829      C1836   1.412       .  A
C1830      N1847   1.157       .  T
C1831      N1849   1.157       .  T
C1832      C1833   1.417       .  A
C1832      C1837   1.450       .  S
C1833      C1834   1.418       .  A
C1833      C1839   1.450       .  S
C1834      C1835   1.419       .  A
C1835      C1836   1.417       .  A
C1835      C1838   1.451       .  S
C1836      C1840   1.450       .  S
C1837      N1844   1.157       .  T
C1838      N1845   1.157       .  T
C1839      N1843   1.157       .  T
C1840      N1846   1.157       .  T
C1841      N1850   1.157       .  T
C1842      N1848   1.157       .  T
C1851      C1852   1.413       .  A
C1851      C1856   1.415       .  A
C1851      C1869   1.449       .  S
C1852      C1857   1.504       .  S
C1852      C1853   1.412       .  A
C1853      C1854   1.413       .  A
C1853      C1858   1.450       .  S
C1854      C1855   1.412       .  A
C1854      C1870   1.450       .  S
C1855      C1856   1.413       .  A
C1856      C1859   1.450       .  S
C1857      C1860   1.412       .  A
C1857      C1864   1.413       .  A
C1858      N1875   1.157       .  T
C1859      N1877   1.157       .  T
C1860      C1861   1.413       .  A
C1860      C1865   1.450       .  S
C1861      C1862   1.413       .  A
C1861      C1867   1.450       .  S
C1862      C1863   1.413       .  A
C1863      C1864   1.415       .  A
C1863      C1866   1.449       .  S
C1864      C1868   1.450       .  S
C1865      N1872   1.157       .  T
C1866      N1873   1.157   1_556  T
C1867      N1871   1.157       .  T
C1868      N1874   1.157       .  T
C1869      N1878   1.157       .  T
C1870      N1876   1.157       .  T
C1879      C1880   1.413       .  A
C1879      C1884   1.412       .  A
C1879      C1897   1.450       .  S
C1880      C1885   1.503       .  S
C1880      C1881   1.414       .  A
C1881      C1882   1.412       .  A
C1881      C1886   1.450       .  S
C1882      C1883   1.411       .  A
C1882      C1898   1.450       .  S
C1883      C1884   1.412       .  A
C1884      C1887   1.451       .  S
C1885      C1888   1.411       .  A
C1885      C1892   1.412       .  A
C1886      N1903   1.157       .  T
C1887      N1905   1.157       .  T
C1888      C1889   1.414       .  A
C1888      C1893   1.451       .  S
C1889      C1890   1.420       .  A
C1889      C1895   1.452       .  S
C1890      C1891   1.417       .  A
C1891      C1892   1.413       .  A
C1891      C1894   1.451       .  S
C1892      C1896   1.451       .  S
C1893      N1900   1.157       .  T
C1894      N1901   1.157       .  T
C1895      N1899   1.158       .  T
C1896      N1902   1.157       .  T
C1897      N1906   1.157       .  T
C1898      N1904   1.157       .  T
C1907      C1908   1.413       .  A
C1907      C1912   1.414       .  A
C1907      C1925   1.452       .  S
C1908      C1913   1.509       .  S
C1908      C1909   1.414       .  A
C1909      C1910   1.415       .  A
C1909      C1914   1.451       .  S
C1910      C1911   1.418       .  A
C1910      C1926   1.451       .  S
C1911      C1912   1.419       .  A
C1912      C1915   1.452       .  S
C1913      C1916   1.415       .  A
C1913      C1920   1.415       .  A
C1914      N1931   1.157       .  T
C1915      N1933   1.158       .  T
C1916      C1917   1.415       .  A
C1916      C1921   1.451       .  S
C1917      C1918   1.413       .  A
C1917      C1923   1.451       .  S
C1918      C1919   1.411       .  A
C1919      C1920   1.413       .  A
C1919      C1922   1.450       .  S
C1920      C1924   1.450       .  S
C1921      N1928   1.157       .  T
C1922      N1929   1.157       .  T
C1923      N1927   1.157       .  T
C1924      N1930   1.157       .  T
C1925      N1934   1.157       .  T
C1926      N1932   1.157       .  T
C1935      C1936   1.410       .  A
C1935      C1940   1.412       .  A
C1935      C1953   1.451       .  S
C1936      C1941   1.504       .  S
C1936      C1937   1.413       .  A
C1937      C1938   1.417       .  A
C1937      C1942   1.450       .  S
C1938      C1939   1.416       .  A
C1938      C1954   1.450       .  S
C1939      C1940   1.417       .  A
C1940      C1943   1.448       .  S
C1941      C1944   1.412       .  A
C1941      C1948   1.411       .  A
C1942      N1959   1.157       .  T
C1943      N1961   1.156       .  T
C1944      C1945   1.415       .  A
C1944      C1949   1.450       .  S
C1945      C1946   1.415       .  A
C1945      C1951   1.449       .  S
C1946      C1947   1.417       .  A
C1947      C1948   1.414       .  A
C1947      C1950   1.451       .  S
C1948      C1952   1.450       .  S
C1949      N1956   1.157       .  T
C1950      N1957   1.157       .  T
C1951      N1955   1.157       .  T
C1952      N1958   1.157       .  T
C1953      N1962   1.157       .  T
C1954      N1960   1.157       .  T
C1963      C1964   1.411       .  A
C1963      C1968   1.412       .  A
C1963      C1981   1.450       .  S
C1964      C1969   1.499       .  S
C1964      C1965   1.411       .  A
C1965      C1966   1.413       .  A
C1965      C1970   1.451       .  S
C1966      C1967   1.414       .  A
C1966      C1982   1.450       .  S
C1967      C1968   1.413       .  A
C1968      C1971   1.449       .  S
C1969      C1972   1.412       .  A
C1969      C1976   1.412       .  A
C1970      N1987   1.157       .  T
C1971      N1989   1.157       .  T
C1972      C1973   1.414       .  A
C1972      C1977   1.450       .  S
C1973      C1974   1.412       .  A
C1973      C1979   1.451       .  S
C1974      C1975   1.411       .  A
C1975      C1976   1.410       .  A
C1975      C1978   1.451       .  S
C1976      C1980   1.450       .  S
C1977      N1984   1.157       .  T
C1978      N1985   1.157   1_556  T
C1979      N1983   1.157       .  T
C1980      N1986   1.157       .  T
C1981      N1990   1.157       .  T
C1982      N1988   1.157       .  T
C1991      C1992   1.410       .  A
C1991      C1996   1.414       .  A
C1991      C2009   1.449       .  S
C1992      C1997   1.505       .  S
C1992      C1993   1.411       .  A
C1993      C1994   1.415       .  A
C1993      C1998   1.451       .  S
C1994      C1995   1.419       .  A
C1994      C2010   1.451       .  S
C1995      C1996   1.419       .  A
C1996      C1999   1.451       .  S
C1997      C2000   1.410       .  A
C1997      C2004   1.410       .  A
C1998      N2015   1.157       .  T
C1999      N2017   1.157       .  T
C2000      C2001   1.414       .  A
C2000      C2005   1.451       .  S
C2001      C2002   1.421       .  A
C2001      C2007   1.451       .  S
C2002      C2003   1.422       .  A
C2003      C2004   1.416       .  A
C2003      C2006   1.451       .  S
C2004      C2008   1.451       .  S
C2005      N2012   1.157       .  T
C2006      N2013   1.158       .  T
C2007      N2011   1.157       .  T
C2008      N2014   1.157       .  T
C2009      N2018   1.157       .  T
C2010      N2016   1.157       .  T
C2019      C2020   1.414       .  A
C2019      C2024   1.413       .  A
C2019      C2037   1.450       .  S
C2020      C2025   1.506       .  S
C2020      C2021   1.414       .  A
C2021      C2022   1.414       .  A
C2021      C2026   1.450       .  S
C2022      C2023   1.410       .  A
C2022      C2038   1.447       .  S
C2023      C2024   1.411       .  A
C2024      C2027   1.450       .  S
C2025      C2028   1.411       .  A
C2025      C2032   1.411       .  A
C2026      N2043   1.157       .  T
C2027      N2045   1.157       .  T
C2028      C2029   1.415       .  A
C2028      C2033   1.451       .  S
C2029      C2030   1.419       .  A
C2029      C2035   1.451       .  S
C2030      C2031   1.420       .  A
C2031      C2032   1.416       .  A
C2031      C2034   1.450       .  S
C2032      C2036   1.451       .  S
C2033      N2040   1.157       .  T
C2034      N2041   1.157       .  T
C2035      N2039   1.157       .  T
C2036      N2042   1.157       .  T
C2037      N2046   1.157       .  T
C2038      N2044   1.156       .  T
