geometry optimzed in LAMMPS
_audit_creation_date              2020-11-30 
_audit_creation_method            'lammps2cif' 
_symmetry_space_group_name_H-M    'P1' 
_symmetry_Int_Tables_number       1 
_symmetry_cell_setting            triclinic 
loop_ 
_symmetry_equiv_pos_as_xyz 
  x,y,z 
_cell_length_a                    49.29676029 
_cell_length_b                    49.350364935035984 
_cell_length_c                    49.32547072994169 
_cell_angle_alpha                 89.76001029979771 
_cell_angle_beta                  90.0980330447815 
_cell_angle_gamma                 90.25034703143687 
loop_ 
_atom_site_label 
_atom_site_type_symbol 
_atom_site_fract_x 
_atom_site_fract_y 
_atom_site_fract_z 
_atom_site_charge 
Zn1        Zn  0.51977325  0.51662772  0.02440792     1.49700
Zn2        Zn  0.52080548  0.46946986  0.97968532     1.49400
Zn3        Zn  0.47364270  0.47006274  0.02454835     1.49100
Zn4        Zn  0.47460129  0.51558812  0.97725700     1.49500
O5          O  0.49713637  0.49295597  0.00146591    -1.82400
O6          O  0.55986164  0.51048197  0.01749490    -0.73100
O7          O  0.51391273  0.42967612  0.98773269    -0.72900
O8          O  0.48106966  0.47690437  0.06454020    -0.72400
O9          O  0.56044170  0.47712964  0.98726965    -0.73100
O10         O  0.51273732  0.50923628  0.06426019    -0.72700
O11         O  0.48028935  0.43007867  0.01779087    -0.73300
O12         O  0.43436593  0.50841690  0.98376216    -0.72700
O13         O  0.51467011  0.47583104  0.93955354    -0.73400
O14         O  0.43381534  0.47766028  0.01696994    -0.72800
O15         O  0.48283484  0.50769174  0.93782041    -0.73300
O16         O  0.48200016  0.55578475  0.98328013    -0.73200
O17         O  0.51213347  0.55635176  0.01694327    -0.73000
C18         C  0.57269403  0.49402426  0.00244800     0.78800
C19         C  0.49710353  0.41733623  0.00304401     0.79300
C20         C  0.49706593  0.49299964  0.07694820     0.78300
C21         C  0.42152237  0.49305874  0.00021414     0.78700
C22         C  0.49919459  0.49159392  0.92618075     0.79800
C23         C  0.49713843  0.56863033  0.99984595     0.78800
Zn24       Zn  0.48048042  0.98055419  0.52365876     1.49700
Zn25       Zn  0.52601965  0.02735688  0.52270122     1.49400
Zn26       Zn  0.52632883  0.98092153  0.47709045     1.49100
Zn27       Zn  0.47931355  0.02607032  0.47676952     1.49500
O28         O  0.50303943  0.00374461  0.50002448    -1.82400
O29         O  0.48809148  0.98768408  0.56333120    -0.73100
O30         O  0.56603117  0.02030354  0.51605701    -0.72900
O31         O  0.51915308  0.94099662  0.48431239    -0.72400
O32         O  0.51870747  0.02096834  0.56278839    -0.73100
O33         O  0.48806669  0.94094255  0.51703090    -0.72700
O34         O  0.56625910  0.98826032  0.48441800    -0.73300
O35         O  0.48634105  0.01874438  0.43686726    -0.72700
O36         O  0.51881173  0.06698051  0.51444749    -0.73400
O37         O  0.51936154  0.98809066  0.43714906    -0.72800
O38         O  0.48592799  0.06617253  0.48342386    -0.73300
O39         O  0.43953636  0.01824434  0.48432842    -0.73200
O40         O  0.44032673  0.98703276  0.51704838    -0.73000
C41         C  0.50347698  0.00440652  0.57560366     0.78800
C42         C  0.57870902  0.00433621  0.50034974     0.79300
C43         C  0.50368162  0.92846355  0.50084369     0.78300
C44         C  0.50288175  0.00340179  0.42446088     0.78700
C45         C  0.50228710  0.07910870  0.49870914     0.79800
C46         C  0.42737382  0.00246099  0.50085443     0.78800
Zn47       Zn  0.02190369  0.48513433  0.52318459     1.49700
Zn48       Zn  0.97597419  0.53142226  0.52302536     1.49400
Zn49       Zn  0.02185262  0.53108244  0.47638414     1.49100
Zn50       Zn  0.97541361  0.48492500  0.47727414     1.49500
O51         O  0.99879351  0.50816064  0.49996816    -1.82400
O52         O  0.01459595  0.49209349  0.56312827    -0.73100
O53         O  0.98386885  0.57127153  0.51585766    -0.72900
O54         O  0.06189911  0.52401098  0.48344773    -0.72400
O55         O  0.98254875  0.52369320  0.56308991    -0.73100
O56         O  0.06182880  0.49252937  0.51587881    -0.72700
O57         O  0.01496697  0.57104109  0.48321938    -0.73300
O58         O  0.98257365  0.49153775  0.43719431    -0.72700
O59         O  0.93589126  0.52515007  0.51532103    -0.73400
O60         O  0.01428553  0.52372763  0.43646717    -0.72800
O61         O  0.93555077  0.49288759  0.48396108    -0.73300
O62         O  0.98213415  0.44493915  0.48513627    -0.73200
O63         O  0.01474112  0.44505833  0.51635611    -0.73000
C64         C  0.99840051  0.50765672  0.57576259     0.78800
C65         C  0.99952075  0.58378479  0.49943735     0.79300
C66         C  0.07451626  0.50827634  0.49966356     0.78300
C67         C  0.99829825  0.50749895  0.42417258     0.78700
C68         C  0.92307166  0.50932673  0.49938507     0.79800
C69         C  0.99835858  0.43233389  0.50088301     0.78800
Zn70       Zn  0.02505768  0.97249526  0.97453693     1.49700
Zn71       Zn  0.02413779  0.01905018  0.02013250     1.49400
Zn72       Zn  0.97834822  0.01843294  0.97358841     1.49100
Zn73       Zn  0.97787187  0.97228930  0.01984622     1.49500
O74         O  0.00137452  0.99551963  0.99703081    -1.82400
O75         O  0.06496537  0.98025961  0.98203530    -0.73100
O76         O  0.01661103  0.05889750  0.01277354    -0.72900
O77         O  0.98634110  0.01148353  0.93405379    -0.72400
O78         O  0.06432100  0.01268662  0.01326668    -0.73100
O79         O  0.01837958  0.97976702  0.93441340    -0.72700
O80         O  0.98529067  0.05842437  0.98022582    -0.73300
O81         O  0.93784627  0.97940516  0.01232624    -0.72700
O82         O  0.01669065  0.01169758  0.06002099    -0.73400
O83         O  0.93817123  0.01114700  0.98012727    -0.72800
O84         O  0.98495577  0.97940326  0.05988526    -0.73300
O85         O  0.98496325  0.93233118  0.01274489    -0.73200
O86         O  0.01809580  0.93237292  0.98209928    -0.73000
C87         C  0.07722662  0.99672764  0.99772318     0.78800
C88         C  0.00089431  0.07121520  0.99635968     0.79300
C89         C  0.00259224  0.99582261  0.92171465     0.78300
C90         C  0.92541144  0.99525527  0.99610840     0.78700
C91         C  0.00076687  0.99552793  0.07251087     0.79800
C92         C  0.00153702  0.91977566  0.99753610     0.78800
C93         C  0.64362864  0.47665646  0.01915103     0.81900
N94         N  0.65745167  0.49382941  0.00268090    -0.76400
C95         C  0.64399287  0.51122428  0.98621805     0.84400
N96         N  0.61641520  0.51150525  0.98621837    -0.76300
C97         C  0.60242252  0.49428009  0.00275370     0.84500
N98         N  0.61608089  0.47678611  0.01916442    -0.78100
C99         C  0.35058869  0.50969520  0.01777932     0.81900
N100        N  0.33664037  0.49340195  0.00063087    -0.76400
C101        C  0.34996868  0.47702567  0.98322414     0.84400
N102        N  0.37756644  0.47694489  0.98290478    -0.76300
C103        C  0.39171426  0.49328958  0.00012245     0.84500
N104        N  0.37815059  0.50963870  0.01758974    -0.78100
C105        C  0.01420578  0.52362452  0.35224831     0.81900
N106        N  0.01451497  0.52407939  0.37981190    -0.76400
C107        C  0.99795728  0.50713919  0.39419533     0.84400
N108        N  0.98116244  0.48974677  0.38072402    -0.76300
C109        C  0.98093564  0.48936538  0.35315953     0.84500
N110        N  0.99746162  0.50627140  0.33908671    -0.78100
C111        C  0.98403948  0.14192576  0.01401099     0.81900
N112        N  0.98442075  0.11440106  0.01404478    -0.76400
C113        C  0.00052322  0.10096394  0.99624254     0.84400
N114        N  0.01628655  0.11518878  0.97846953    -0.76300
C115        C  0.01588306  0.14275288  0.97859128     0.84500
N116        N  0.99977427  0.15594802  0.99634253    -0.78100
C117        C  0.97942847  0.52166831  0.64722226     0.81900
N118        N  0.99629825  0.50479566  0.66078310    -0.76400
C119        C  0.01392498  0.48895487  0.64714135     0.84400
N120        N  0.01471726  0.48993244  0.61960465    -0.76300
C121        C  0.99782224  0.50686350  0.60572585     0.84500
N122        N  0.98014794  0.52275533  0.61967752    -0.78100
Zn123      Zn  0.16153268  0.33392975  0.83023989     1.49700
Zn124      Zn  0.22300929  0.31914147  0.81341380     1.49400
Zn125      Zn  0.17702889  0.27317775  0.81253327     1.49100
Zn126      Zn  0.17720693  0.32006238  0.76820352     1.49500
O127        O  0.18450361  0.31179917  0.80628045    -1.82400
O128        O  0.18555367  0.35690034  0.85548485    -0.73100
O129        O  0.24329821  0.28454319  0.82163140    -0.72900
O130        O  0.15057133  0.26768431  0.84247942    -0.72400
O131        O  0.22756258  0.34494220  0.84400467    -0.73100
O132        O  0.13738542  0.30923566  0.85396397    -0.72700
O133        O  0.21146437  0.25256390  0.82072379    -0.73300
O134        O  0.16595233  0.28645974  0.74773057    -0.72700
O135        O  0.24270109  0.33413771  0.78071794    -0.73400
O136        O  0.16244029  0.25444960  0.77935102    -0.72800
O137        O  0.21111341  0.33206331  0.74863213    -0.73300
O138        O  0.14908774  0.34863575  0.76461955    -0.73200
O139        O  0.13769588  0.35917810  0.80706257    -0.73000
C140        C  0.21126079  0.35853050  0.85843433     0.78800
C141        C  0.23621712  0.25972519  0.82277203     0.79300
C142        C  0.13608604  0.28348674  0.85656381     0.78300
C143        C  0.16168358  0.26196273  0.75470945     0.78700
C144        C  0.23555533  0.33585566  0.75600725     0.79800
C145        C  0.13537307  0.36235631  0.78143176     0.78800
C146        C  0.01921184  0.84865012  0.01408815     0.81900
N147        N  0.01949032  0.87621741  0.01368478    -0.76400
C148        C  0.00149589  0.88995907  0.99781987     0.84400
N149        N  0.98328033  0.87598633  0.98240523    -0.76300
C150        C  0.98318278  0.84842651  0.98280452     0.84500
N151        N  0.00109733  0.83493527  0.99864802    -0.78100
Zn152      Zn  0.81288191  0.72464683  0.82137330     1.49700
Zn153      Zn  0.81141645  0.67872057  0.77590724     1.49400
Zn154      Zn  0.82898224  0.66327021  0.83706775     1.49100
Zn155      Zn  0.76724922  0.67962215  0.82274526     1.49500
O156        O  0.80540333  0.68634712  0.81442631    -1.82400
O157        O  0.82444678  0.74421237  0.78766242    -0.73100
O158        O  0.84024788  0.65113624  0.77102107    -0.72900
O159        O  0.85319884  0.68717282  0.86124850    -0.72400
O160        O  0.82228534  0.71268464  0.75570814    -0.73100
O161        O  0.84130432  0.72926413  0.84978352    -0.72700
O162        O  0.85343755  0.63989284  0.81283109    -0.73300
O163        O  0.76312881  0.65045206  0.85047893    -0.72700
O164        O  0.77726849  0.66635957  0.75669630    -0.73400
O165        O  0.80543983  0.63828811  0.86097747    -0.72800
O166        O  0.74649862  0.67007614  0.78929984    -0.73300
O167        O  0.74741936  0.71309998  0.83421807    -0.73200
O168        O  0.77918879  0.74497335  0.83157692    -0.73000
C169        C  0.82574817  0.73717714  0.76295433     0.78800
C170        C  0.85515994  0.63762364  0.78709757     0.79300
C171        C  0.85553664  0.71284980  0.86363933     0.78300
C172        C  0.77976127  0.63589688  0.86372835     0.78700
C173        C  0.75275505  0.66629482  0.76465621     0.79800
C174        C  0.75456880  0.73785399  0.83463598     0.78800
Zn175      Zn  0.79611196  0.28893753  0.20783504     1.49700
Zn176      Zn  0.80914126  0.29977980  0.14848514     1.49400
Zn177      Zn  0.80815863  0.34812302  0.19497482     1.49100
Zn178      Zn  0.85694055  0.30171329  0.19616229     1.49500
O179        O  0.81846007  0.31046698  0.18605175    -1.82400
O180        O  0.77238629  0.26433635  0.18901743    -0.73100
O181        O  0.79312535  0.33256021  0.12953163    -0.72900
O182        O  0.77889899  0.35169381  0.22527330    -0.72400
O183        O  0.78051015  0.26876009  0.14524812    -0.73100
O184        O  0.77325253  0.30794280  0.23280193    -0.72700
O185        O  0.79239625  0.36518809  0.16097112    -0.73300
O186        O  0.87451460  0.33637439  0.21005568    -0.72700
O187        O  0.84329222  0.28620164  0.13039087    -0.73400
O188        O  0.84176636  0.36769361  0.20870138    -0.72800
O189        O  0.87548834  0.28716906  0.16248805    -0.73300
O190        O  0.86200191  0.27215174  0.22655987    -0.73200
O191        O  0.81790203  0.26696236  0.22988349    -0.73000
C192        C  0.76789584  0.25757488  0.16485935     0.78800
C193        C  0.78709885  0.35645443  0.13720812     0.79300
C194        C  0.76766785  0.33218944  0.23807262     0.78300
C195        C  0.86592155  0.36034599  0.21440417     0.78700
C196        C  0.86742038  0.28156998  0.13853461     0.79800
C197        C  0.84149624  0.26060633  0.23719657     0.78800
Zn198      Zn  0.17073694  0.66579525  0.16552449     1.49700
Zn199      Zn  0.18823122  0.72712831  0.17976070     1.49400
Zn200      Zn  0.18794924  0.68180912  0.22648721     1.49100
Zn201      Zn  0.23277171  0.68091513  0.18033485     1.49500
O202        O  0.19472228  0.68874548  0.18785914    -1.82400
O203        O  0.14672864  0.68963815  0.14110892    -0.73100
O204        O  0.17955168  0.74796501  0.21379349    -0.72900
O205        O  0.15779959  0.65530898  0.23172633    -0.72400
O206        O  0.15845740  0.73170835  0.15276499    -0.73100
O207        O  0.14597246  0.64269559  0.18997521    -0.72700
O208        O  0.17946092  0.71654567  0.24619657    -0.73300
O209        O  0.25274780  0.67032004  0.21435067    -0.72700
O210        O  0.22163566  0.74615012  0.16568623    -0.73400
O211        O  0.22101178  0.66791986  0.24618993    -0.72800
O212        O  0.25316371  0.71418953  0.16781412    -0.73300
O213        O  0.23626866  0.65169491  0.15304693    -0.73200
O214        O  0.19376193  0.64057395  0.14193805    -0.73000
C215        C  0.14422395  0.71530758  0.13889513     0.78800
C216        C  0.17788012  0.74119256  0.23866395     0.79300
C217        C  0.14334932  0.64124137  0.21569619     0.78300
C218        C  0.24567014  0.66672006  0.23887244     0.78700
C219        C  0.24620747  0.73869355  0.16404003     0.79800
C220        C  0.21938479  0.63761457  0.13960326     0.78800
C221        C  0.51433567  0.34630146  0.02007690     0.81900
N222        N  0.49676260  0.33261603  0.00397950    -0.76400
C223        C  0.47929622  0.34619944  0.98770283     0.84400
N224        N  0.47934454  0.37371719  0.98746347    -0.76300
C225        C  0.49695883  0.38761301  0.00354068     0.84500
N226        N  0.51455282  0.37386351  0.01982313    -0.78100
C227        C  0.48232729  0.63973978  0.01782121     0.81900
N228        N  0.49780623  0.65340764  0.99965278    -0.76400
C229        C  0.51301288  0.63985920  0.98137168     0.84400
N230        N  0.51270875  0.61227973  0.98119435    -0.76300
C231        C  0.49718498  0.59840552  0.99946685     0.84500
N232        N  0.48206377  0.61221235  0.01783454    -0.78100
C233        C  0.52021283  0.01946694  0.35317074     0.81900
N234        N  0.52018954  0.01975336  0.38073348    -0.76400
C235        C  0.50290668  0.00326579  0.39471324     0.84400
N236        N  0.48575221  0.98648903  0.38103346    -0.76300
C237        C  0.48589028  0.98622826  0.35348863     0.84500
N238        N  0.50309307  0.00270514  0.33969226    -0.78100
C239        C  0.14857848  0.98103382  0.01517594     0.81900
N240        N  0.16213055  0.99817549  0.99844478    -0.76400
C241        C  0.14841589  0.01487233  0.98146814     0.84400
N242        N  0.12082375  0.01446575  0.98118904    -0.76300
C243        C  0.10704987  0.99727066  0.99796126     0.84500
N244        N  0.12099951  0.98053108  0.01495224    -0.78100
C245        C  0.85432181  0.01289685  0.01240888     0.81900
N246        N  0.84048699  0.99562400  0.99617798    -0.76400
C247        C  0.85387007  0.97823533  0.97985873     0.84400
N248        N  0.88147341  0.97805168  0.97974625    -0.76300
C249        C  0.89556235  0.99539678  0.99602705     0.84500
N250        N  0.88190643  0.01282648  0.01238354    -0.78100
Zn251      Zn  0.67515506  0.77147394  0.81916857     1.49700
Zn252      Zn  0.65982237  0.83271384  0.83603645     1.49400
Zn253      Zn  0.72111723  0.81696473  0.81947036     1.49100
Zn254      Zn  0.67576694  0.81800677  0.77433202     1.49500
O255        O  0.68270892  0.80997866  0.81255173    -1.82400
O256        O  0.64675955  0.76654377  0.84726337    -0.73100
O257        O  0.68427984  0.85649139  0.86042113    -0.72900
O258        O  0.74077834  0.78342841  0.83138094    -0.72400
O259        O  0.63523046  0.80828528  0.85986784    -0.73100
O260        O  0.70888955  0.75152157  0.83074164    -0.72700
O261        O  0.72609558  0.84544771  0.84735002    -0.73300
O262        O  0.70902832  0.82963904  0.75394515    -0.72700
O263        O  0.63583183  0.85741377  0.81221555    -0.73400
O264        O  0.74100851  0.82749196  0.78554370    -0.72800
O265        O  0.64707152  0.84585783  0.77001432    -0.73300
O266        O  0.66597540  0.78450064  0.75411670    -0.73200
O267        O  0.66344391  0.75192213  0.78524207    -0.73000
C268        C  0.63272139  0.78252226  0.86158495     0.78800
C269        C  0.71006166  0.85907216  0.86202710     0.79300
C270        C  0.73352463  0.75877763  0.83360191     0.78300
C271        C  0.73379593  0.83052859  0.76097293     0.78700
C272        C  0.63329031  0.85986896  0.78651741     0.79800
C273        C  0.66279454  0.75980970  0.76069805     0.78800
C274        C  0.51809392  0.98658503  0.64711433     0.81900
N275        N  0.51840463  0.98632453  0.61954902    -0.76400
C276        C  0.50345306  0.00470112  0.60533259     0.84400
N277        N  0.48811188  0.02313903  0.61876629    -0.76300
C278        C  0.48778897  0.02320542  0.64629903     0.84500
N279        N  0.50276042  0.00497161  0.66032666    -0.78100
Zn280      Zn  0.27145082  0.17979152  0.81274714     1.49700
Zn281      Zn  0.31804272  0.17997158  0.76823906     1.49400
Zn282      Zn  0.31666695  0.22610727  0.81305607     1.49100
Zn283      Zn  0.33279680  0.16540734  0.83037720     1.49500
O284        O  0.30990849  0.18761603  0.80624125    -1.82400
O285        O  0.25253944  0.16560995  0.77949463    -0.73100
O286        O  0.32988773  0.21366482  0.74809072    -0.72900
O287        O  0.28214327  0.24608207  0.82170304    -0.72400
O288        O  0.28444636  0.16819962  0.74779788    -0.73100
O289        O  0.25047876  0.21396145  0.82092841    -0.72700
O290        O  0.33003988  0.24543888  0.77986278    -0.73300
O291        O  0.35601881  0.18982763  0.85468557    -0.72700
O292        O  0.34697685  0.15230402  0.76519334    -0.73400
O293        O  0.34359892  0.23155127  0.84261066    -0.72800
O294        O  0.35826350  0.14181273  0.80778270    -0.73300
O295        O  0.30887787  0.14129450  0.85461199    -0.73200
O296        O  0.26682439  0.15306075  0.84280268    -0.73000
C297        C  0.25990536  0.16442669  0.75486421     0.78800
C298        C  0.33254563  0.23822400  0.75532568     0.79300
C299        C  0.25739267  0.23876309  0.82285425     0.78300
C300        C  0.35771319  0.21552423  0.85699323     0.78700
C301        C  0.36122968  0.13922847  0.78221562     0.79800
C302        C  0.28316874  0.13924036  0.85715231     0.78800
Zn303      Zn  0.29611259  0.79055478  0.20933452     1.49700
Zn304      Zn  0.30791300  0.84982717  0.19618057     1.49400
Zn305      Zn  0.35653478  0.80289478  0.19666820     1.49100
Zn306      Zn  0.30773485  0.80203089  0.14962448     1.49500
O307        O  0.31792729  0.81215047  0.18710476    -1.82400
O308        O  0.27234862  0.80962784  0.23356876    -0.73100
O309        O  0.34167478  0.86868551  0.21032363    -0.72900
O310        O  0.36223931  0.77340575  0.22725239    -0.72400
O311        O  0.27837995  0.85337203  0.22615244    -0.73100
O312        O  0.31820592  0.76951039  0.23184687    -0.72700
O313        O  0.37450941  0.83740261  0.21026416    -0.73300
O314        O  0.34123560  0.78700847  0.13130173    -0.72700
O315        O  0.29282647  0.86776555  0.16223094    -0.73400
O316        O  0.37416593  0.78800271  0.16267830    -0.72800
O317        O  0.29297173  0.83541709  0.13055049    -0.73300
O318        O  0.27780808  0.77225077  0.14693125    -0.73200
O319        O  0.27335516  0.76483632  0.19086302    -0.73000
C320        C  0.26676379  0.83392728  0.23869752     0.78800
C321        C  0.36593868  0.86123109  0.21535607     0.79300
C322        C  0.34176452  0.76270102  0.23877084     0.78300
C323        C  0.36546776  0.78211916  0.13900969     0.78700
C324        C  0.28756736  0.85943465  0.13831474     0.79800
C325        C  0.26707626  0.75951809  0.16673217     0.78800
Zn326      Zn  0.68953155  0.22445227  0.17829084     1.49700
Zn327      Zn  0.73452984  0.17841622  0.17779322     1.49400
Zn328      Zn  0.69013352  0.17918835  0.22458156     1.49100
Zn329      Zn  0.67223229  0.16295381  0.16396801     1.49500
O330        O  0.69646984  0.18606917  0.18591779    -1.82400
O331        O  0.72271332  0.24363614  0.16420391    -0.73100
O332        O  0.75488942  0.16784324  0.21179221    -0.72900
O333        O  0.68245460  0.21387821  0.24473940    -0.72400
O334        O  0.75460983  0.21195840  0.16496090    -0.73100
O335        O  0.68110252  0.24536891  0.21250132    -0.72700
O336        O  0.72314917  0.16466468  0.24359824    -0.73300
O337        O  0.64762175  0.14003645  0.18883375    -0.72700
O338        O  0.73766404  0.14917924  0.15025142    -0.73400
O339        O  0.65970063  0.15321376  0.23032512    -0.72800
O340        O  0.69500518  0.13775904  0.14001904    -0.73300
O341        O  0.64791786  0.18672347  0.13981586    -0.73200
O342        O  0.65953110  0.22883337  0.15149537    -0.73000
C343        C  0.74732007  0.23647766  0.16189709     0.78800
C344        C  0.74781423  0.16383216  0.23628039     0.79300
C345        C  0.68027229  0.23852733  0.23740137     0.78300
C346        C  0.64509859  0.13899218  0.21458893     0.78700
C347        C  0.72059787  0.13500724  0.13709538     0.79800
C348        C  0.64525017  0.21238497  0.13772106     0.78800
C349        C  0.48198460  0.51313312  0.14734377     0.81900
N350        N  0.48164811  0.51202346  0.11985543    -0.76400
C351        C  0.49702285  0.49344483  0.10669874     0.84400
N352        N  0.51293204  0.47607749  0.12117737    -0.76300
C353        C  0.51327048  0.47730529  0.14874588     0.84500
N354        N  0.49780226  0.49583008  0.16166896    -0.78100
C355        C  0.85170646  0.52786554  0.51445557     0.81900
N356        N  0.87927296  0.52723535  0.51520901    -0.76400
C357        C  0.89311265  0.51009566  0.49867083     0.84400
N358        N  0.87910947  0.49363854  0.48143155    -0.76300
C359        C  0.85155722  0.49436512  0.48072270     0.84500
N360        N  0.83799844  0.51143310  0.49724677    -0.78100
Zn361      Zn  0.73469864  0.32017646  0.31766643     1.49700
Zn362      Zn  0.68956971  0.31925726  0.27144841     1.49400
Zn363      Zn  0.68995481  0.27352526  0.31756676     1.49100
Zn364      Zn  0.67264184  0.33444607  0.33277304     1.49500
O365        O  0.69656064  0.31207376  0.31004766    -1.80400
O366        O  0.75457577  0.33154170  0.28362544    -0.73100
O367        O  0.68154156  0.28454290  0.25106746    -0.72900
O368        O  0.72298168  0.25473788  0.33227641    -0.72400
O369        O  0.72248205  0.33403796  0.25203525    -0.73100
O370        O  0.75483266  0.28662463  0.32958291    -0.72700
O371        O  0.68198420  0.25283449  0.28314713    -0.73300
O372        O  0.64863497  0.30995766  0.35677825    -0.72700
O373        O  0.65898689  0.34522694  0.26657062    -0.73400
O374        O  0.65988205  0.26821420  0.34399523    -0.72800
O375        O  0.64769371  0.35758467  0.30849563    -0.73300
O376        O  0.69583223  0.35932592  0.35702591    -0.73200
O377        O  0.73834541  0.34878933  0.34584899    -0.73000
C378        C  0.74723212  0.33535116  0.25917030     0.78800
C379        C  0.68026355  0.25977758  0.25832119     0.79300
C380        C  0.74764079  0.26215786  0.33360811     0.78300
C381        C  0.64587803  0.28424083  0.35831857     0.78700
C382        C  0.64466868  0.35905604  0.28279091     0.79800
C383        C  0.72146729  0.36239381  0.35961481     0.78800
C384        C  0.51984922  0.15041751  0.48277348     0.81900
N385        N  0.50179266  0.16383666  0.49838911    -0.76400
C386        C  0.48384403  0.14997882  0.51399485     0.84400
N387        N  0.48388267  0.12244523  0.51398122    -0.76300
C388        C  0.50198182  0.10883345  0.49836957     0.84500
N389        N  0.52002689  0.12286722  0.48278926    -0.78100
C390        C  0.51721342  0.85757292  0.52109665     0.81900
N391        N  0.51787405  0.88510235  0.52048439    -0.76400
C392        C  0.50361902  0.89880157  0.50119474     0.84400
N393        N  0.48852193  0.88492242  0.48276115    -0.76300
C394        C  0.48777925  0.85743098  0.48354864     0.84500
N395        N  0.50211309  0.84385300  0.50268342    -0.78100
Zn396      Zn  0.29603726  0.71330987  0.28895104     1.49700
Zn397      Zn  0.30689206  0.65404505  0.30264413     1.49400
Zn398      Zn  0.35622489  0.70056518  0.30118412     1.49100
Zn399      Zn  0.30797512  0.70231039  0.34859966     1.49500
O400        O  0.31763168  0.69172427  0.31121740    -1.82400
O401        O  0.27335193  0.69419925  0.26372176    -0.73100
O402        O  0.33996458  0.63487817  0.28772944    -0.72900
O403        O  0.36215225  0.73040653  0.27094450    -0.72400
O404        O  0.27653461  0.65063090  0.27346429    -0.73100
O405        O  0.31816360  0.73524444  0.26732040    -0.72700
O406        O  0.37320538  0.66600357  0.28707914    -0.73300
O407        O  0.34205788  0.71664942  0.36654257    -0.72700
O408        O  0.29249871  0.63631372  0.33693961    -0.73400
O409        O  0.37472698  0.71466199  0.33505769    -0.72800
O410        O  0.29283356  0.66920099  0.36805470    -0.73300
O411        O  0.27875514  0.73259036  0.35124558    -0.73200
O412        O  0.27233038  0.73803091  0.30726832    -0.73000
C413        C  0.26643587  0.66999520  0.25965785     0.78800
C414        C  0.36420073  0.64222041  0.28218539     0.79300
C415        C  0.34173415  0.74184941  0.26016592     0.78300
C416        C  0.36640620  0.72077363  0.35874339     0.78700
C417        C  0.28741427  0.64499697  0.36072290     0.79800
C418        C  0.26697152  0.74421727  0.33137895     0.78800
C419        C  0.14621410  0.52494804  0.48308224     0.81900
N420        N  0.11862295  0.52511332  0.48289299    -0.76400
C421        C  0.10449357  0.50822618  0.49972241     0.84400
N422        N  0.11822269  0.49121761  0.51665933    -0.76300
C423        C  0.14578720  0.49111323  0.51677017     0.84500
N424        N  0.15963972  0.50795738  0.49999518    -0.78100
C425        C  0.51898174  0.50799572  0.85573958     0.81900
N426        N  0.51775654  0.50833782  0.88324979    -0.76400
C427        C  0.50043690  0.49134365  0.89652209     0.84400
N428        N  0.48438670  0.47405000  0.88221034    -0.76300
C429        C  0.48568666  0.47377536  0.85470816     0.84500
N430        N  0.50294244  0.49074274  0.84158358    -0.78100
Zn431      Zn  0.34614828  0.30136247  0.69379378     1.49700
Zn432      Zn  0.28667409  0.29026458  0.70633528     1.49400
Zn433      Zn  0.29961497  0.34948404  0.69510708     1.49100
Zn434      Zn  0.29882502  0.30320819  0.64583462     1.49500
O435        O  0.30862298  0.31194626  0.68438920    -1.82400
O436        O  0.34926035  0.27043774  0.72229882    -0.73100
O437        O  0.26150005  0.30892041  0.72915826    -0.72900
O438        O  0.33371404  0.36682606  0.71054307    -0.72400
O439        O  0.30541364  0.26578866  0.73007687    -0.73100
O440        O  0.36499205  0.33405643  0.70985553    -0.72700
O441        O  0.26965493  0.35269781  0.72479154    -0.73300
O442        O  0.28455092  0.33787071  0.62864228    -0.72700
O443        O  0.26509087  0.26813833  0.68437665    -0.73400
O444        O  0.28545590  0.36896663  0.66164105    -0.72800
O445        O  0.26881849  0.27319332  0.64034923    -0.73300
O446        O  0.33289377  0.28938115  0.62729789    -0.73200
O447        O  0.36465929  0.28811603  0.65978756    -0.73000
C448        C  0.32958527  0.25918209  0.73473184     0.78800
C449        C  0.25658205  0.33305448  0.73545706     0.79300
C450        C  0.35747981  0.35801582  0.71576170     0.78300
C451        C  0.27991409  0.36172332  0.63742079     0.78700
C452        C  0.25810261  0.26157969  0.66076891     0.79800
C453        C  0.35683082  0.28384522  0.63550876     0.78800
Zn454      Zn  0.69726022  0.65120863  0.69753603     1.49700
Zn455      Zn  0.70488092  0.70859588  0.71280615     1.49400
Zn456      Zn  0.68958394  0.70184078  0.65535284     1.49100
Zn457      Zn  0.64718478  0.69340768  0.70534582     1.49500
O458        O  0.68307634  0.68707439  0.69108059    -1.82400
O459        O  0.72926966  0.65183631  0.72456714    -0.73100
O460        O  0.73794858  0.72046059  0.69335745    -0.72900
O461        O  0.70591066  0.67171437  0.63250052    -0.72400
O462        O  0.71616327  0.68884812  0.74585843    -0.73100
O463        O  0.71099670  0.63717237  0.66173186    -0.72700
O464        O  0.71656349  0.73389004  0.65629554    -0.73300
O465        O  0.62461204  0.71091635  0.67536856    -0.72700
O466        O  0.68517453  0.74134497  0.72407062    -0.73400
O467        O  0.65396832  0.71609809  0.64107200    -0.72800
O468        O  0.64829972  0.71961600  0.73768693    -0.73300
O469        O  0.63238268  0.65747604  0.71857657    -0.73200
O470        O  0.66678039  0.62833319  0.71373318    -0.73000
C471        C  0.73116765  0.66813917  0.74445241     0.78800
C472        C  0.73648861  0.73569152  0.67267035     0.79300
C473        C  0.71374123  0.64768228  0.63819952     0.78300
C474        C  0.63049596  0.71914430  0.65147023     0.78700
C475        C  0.66459183  0.73964574  0.73930947     0.79800
C476        C  0.64267970  0.63393390  0.72134717     0.78800
C477        C  0.35639196  0.01846754  0.51879233     0.81900
N478        N  0.34256959  0.00180339  0.50192949    -0.76400
C479        C  0.35600092  0.98528325  0.48477591     0.84400
N480        N  0.38357200  0.98542730  0.48437772    -0.76300
C481        C  0.39760854  0.00212819  0.50131004     0.84500
N482        N  0.38396139  0.01869020  0.51852757    -0.78100
C483        C  0.64970982  0.98816691  0.51850312     0.81900
N484        N  0.66355423  0.00453504  0.50124798    -0.76400
C485        C  0.65011561  0.02086186  0.48370175     0.84400
N486        N  0.62253466  0.02082759  0.48335374    -0.76300
C487        C  0.60848968  0.00442574  0.50066165     0.84500
N488        N  0.62213725  0.98807605  0.51825452    -0.78100
C489        C  0.01507923  0.36078207  0.51783633     0.81900
N490        N  0.01524648  0.38836072  0.51785977    -0.76400
C491        C  0.99819262  0.40234255  0.50111389     0.84400
N492        N  0.98107190  0.38845857  0.48438808    -0.76300
C493        C  0.98099030  0.36090984  0.48445394     0.84500
N494        N  0.99798654  0.34724693  0.50113512    -0.78100
C495        C  0.98458663  0.01301007  0.14363016     0.81900
N496        N  0.98445632  0.01296056  0.11605383    -0.76400
C497        C  0.00068395  0.99547956  0.10230420     0.84400
N498        N  0.01707698  0.97816633  0.11625385    -0.76300
C499        C  0.01714946  0.97833439  0.14382030     0.84500
N500        N  0.00093693  0.99573478  0.15733528    -0.78100
C501        C  0.98277592  0.65521147  0.51534593     0.81900
N502        N  0.98283985  0.62768383  0.51584016    -0.76400
C503        C  0.99963100  0.61370162  0.49908906     0.84400
N504        N  0.01631217  0.62752528  0.48184415    -0.76300
C505        C  0.01617804  0.65506749  0.48143241     0.84500
N506        N  0.99942001  0.66877790  0.49816201    -0.78100
Zn507      Zn  0.17099432  0.83759381  0.33277813     1.49700
Zn508      Zn  0.18816953  0.82190170  0.27180921     1.49400
Zn509      Zn  0.23313368  0.82302782  0.31810504     1.49100
Zn510      Zn  0.18838653  0.77652954  0.31829954     1.49500
O511        O  0.19502645  0.81496639  0.31041181    -1.82400
O512        O  0.14632434  0.86071260  0.30841252    -0.73100
O513        O  0.22139059  0.83573071  0.25222003    -0.72900
O514        O  0.23648250  0.85158169  0.34631190    -0.72400
O515        O  0.15783862  0.84805255  0.26665035    -0.73100
O516        O  0.19393828  0.86217017  0.35736975    -0.72700
O517        O  0.25323085  0.83418445  0.28413428    -0.73300
O518        O  0.22163776  0.75756498  0.33241245    -0.72700
O519        O  0.17956038  0.78720714  0.25192045    -0.73400
O520        O  0.25338262  0.78958130  0.33027385    -0.72800
O521        O  0.17963720  0.75574896  0.28424780    -0.73300
O522        O  0.15839934  0.77162900  0.34483568    -0.73200
O523        O  0.14647851  0.81354076  0.35638759    -0.73000
C524        C  0.14343306  0.86197293  0.28270387     0.78800
C525        C  0.24607915  0.83731905  0.25953142     0.79300
C526        C  0.21955960  0.86506918  0.36013654     0.78300
C527        C  0.24627138  0.76505105  0.33402873     0.78700
C528        C  0.17792977  0.76254148  0.25939584     0.79800
C529        C  0.14388973  0.78786430  0.35839261     0.78800
Zn530      Zn  0.80910185  0.15145749  0.30015975     1.49700
Zn531      Zn  0.79663843  0.21066059  0.28771299     1.49400
Zn532      Zn  0.80910800  0.19914839  0.34708317     1.49100
Zn533      Zn  0.85739944  0.19900372  0.29980756     1.49500
O534        O  0.81896756  0.18923409  0.30950366    -1.82400
O535        O  0.77994486  0.14779066  0.26974824    -0.73100
O536        O  0.77337786  0.23534454  0.30646492    -0.72900
O537        O  0.79377438  0.16571174  0.36571580    -0.72400
O538        O  0.77357935  0.19151735  0.26287306    -0.73100
O539        O  0.79353455  0.13342959  0.33393928    -0.72700
O540        O  0.77988731  0.22926836  0.35032692    -0.73300
O541        O  0.87534333  0.21401034  0.33389439    -0.72700
O542        O  0.81813656  0.23275466  0.26558472    -0.73400
O543        O  0.84279627  0.21377229  0.36555818    -0.72800
O544        O  0.86225386  0.22880334  0.26946692    -0.73300
O545        O  0.87549146  0.16472179  0.28577441    -0.73200
O546        O  0.84297954  0.13283850  0.28622121    -0.73000
C547        C  0.76834837  0.16721494  0.25728327     0.78800
C548        C  0.76816466  0.24125455  0.33066324     0.79300
C549        C  0.78817556  0.14172575  0.35782473     0.78300
C550        C  0.86688347  0.21925683  0.35777324     0.78700
C551        C  0.84163357  0.23970845  0.25849281     0.79800
C552        C  0.86712883  0.14066960  0.28092424     0.78800
C553        C  0.01823983  0.01488878  0.85076573     0.81900
N554        N  0.00146292  0.99800604  0.83702957    -0.76400
C555        C  0.98535170  0.98027313  0.85056624     0.84400
N556        N  0.98595348  0.97936062  0.87806850    -0.76300
C557        C  0.00279230  0.99619406  0.89200532     0.84500
N558        N  0.01890170  0.01407936  0.87832487    -0.78100
Zn559      Zn  0.81513077  0.77158667  0.68410156     1.49700
Zn560      Zn  0.81306469  0.81678856  0.72883452     1.49400
Zn561      Zn  0.83029799  0.83317732  0.66827551     1.49100
Zn562      Zn  0.76853516  0.81577018  0.68173887     1.49500
O563        O  0.80685636  0.80962533  0.69050543    -1.82400
O564        O  0.82771452  0.75163886  0.71731170    -0.73100
O565        O  0.84251857  0.84383975  0.73436722    -0.72900
O566        O  0.85347294  0.80995608  0.64308244    -0.72400
O567        O  0.82195222  0.78268413  0.74914916    -0.73100
O568        O  0.84197411  0.76756717  0.65427309    -0.72700
O569        O  0.85525403  0.85584335  0.69264383    -0.73300
O570        O  0.76474008  0.84536599  0.65431597    -0.72700
O571        O  0.77945255  0.82936314  0.74742454    -0.73400
O572        O  0.80705489  0.85877249  0.64521617    -0.72800
O573        O  0.74781871  0.82610577  0.71543447    -0.73300
O574        O  0.74921664  0.78171878  0.66884906    -0.73200
O575        O  0.78130875  0.75099884  0.67577810    -0.73000
C576        C  0.82655590  0.75840170  0.74209273     0.78800
C577        C  0.85733398  0.85762398  0.71837521     0.79300
C578        C  0.85554584  0.78436176  0.64010378     0.78300
C579        C  0.78144003  0.86070061  0.64194182     0.78700
C580        C  0.75478716  0.83006600  0.73997429     0.79800
C581        C  0.75687003  0.75718949  0.67066524     0.78800
Zn582      Zn  0.19565014  0.19983705  0.64503155     1.49700
Zn583      Zn  0.19694551  0.15178363  0.69270315     1.49400
Zn584      Zn  0.20824499  0.21100329  0.70568849     1.49100
Zn585      Zn  0.14884475  0.19818568  0.69370045     1.49500
O586        O  0.18658603  0.18940667  0.68342449    -1.82400
O587        O  0.20999622  0.16622726  0.62635234    -0.73100
O588        O  0.22734150  0.14824460  0.72187325    -0.72900
O589        O  0.23055987  0.23281226  0.68404786    -0.72400
O590        O  0.21117123  0.13422018  0.65867987    -0.73100
O591        O  0.22547815  0.23011718  0.63998457    -0.72700
O592        O  0.23268281  0.19198118  0.72950464    -0.73300
O593        O  0.14539974  0.22785095  0.72346662    -0.72700
O594        O  0.16371180  0.13234722  0.70740863    -0.73400
O595        O  0.18916778  0.23629793  0.72810133    -0.72800
O596        O  0.13116509  0.16384061  0.70829623    -0.73300
O597        O  0.12963360  0.21277939  0.66025997    -0.73200
O598        O  0.16112615  0.21404436  0.62757603    -0.73000
C599        C  0.21570696  0.14233159  0.63451609     0.78800
C600        C  0.23893220  0.16772282  0.73424888     0.79300
C601        C  0.23709626  0.24036630  0.66057813     0.78300
C602        C  0.16488752  0.24112352  0.73411876     0.78700
C603        C  0.13962717  0.13985807  0.71300158     0.79800
C604        C  0.13714810  0.21857514  0.63615486     0.78800
C605        C  0.06337683  0.06270116  0.80050194     0.18700
C606        C  0.05247717  0.06686780  0.77452810    -0.10400
C607        C  0.06730239  0.08117457  0.75489808    -0.11200
C608        C  0.09314120  0.09135776  0.76112391     0.20300
C609        C  0.10403635  0.08714422  0.78707787    -0.13300
C610        C  0.08922043  0.07285506  0.80669374    -0.11600
C611        C  0.10826835  0.10686310  0.74136865     0.01200
C612        C  0.12193687  0.12115143  0.72683005    -0.31600
C613        C  0.04830788  0.04739521  0.82045527     0.02600
C614        C  0.03513283  0.03337468  0.83569035    -0.33200
H615        H  0.03255192  0.05902236  0.76944879     0.13700
H616        H  0.05860254  0.08437006  0.73496254     0.13500
H617        H  0.12395098  0.09500192  0.79218037     0.13400
H618        H  0.09792128  0.06969264  0.82663405     0.12400
C619        C  0.93736080  0.93435823  0.80157307     0.18700
C620        C  0.92959817  0.94647161  0.77701148    -0.10400
C621        C  0.91461826  0.93171769  0.75795515    -0.11200
C622        C  0.90739975  0.90475641  0.76335826     0.20300
C623        C  0.91505813  0.89269084  0.78798289    -0.13300
C624        C  0.93003132  0.90744146  0.80703448    -0.11600
C625        C  0.89143636  0.88958810  0.74416913     0.01200
C626        C  0.87675907  0.87570208  0.73036901    -0.31600
C627        C  0.95336262  0.94943204  0.82078121     0.02600
C628        C  0.96753119  0.96288522  0.83548833    -0.33200
H629        H  0.93519464  0.96727585  0.77257187     0.13700
H630        H  0.90865358  0.94131141  0.73908584     0.13500
H631        H  0.90941862  0.87190478  0.79245874     0.13400
H632        H  0.93594455  0.89786300  0.82593117     0.12400
C633        C  0.09250837  0.74337992  0.40479956     0.18700
C634        C  0.08712078  0.71779091  0.39369725    -0.10400
C635        C  0.07218854  0.69856564  0.40840917    -0.11200
C636        C  0.06259498  0.70481314  0.43434543     0.20300
C637        C  0.06784849  0.73045483  0.44538510    -0.13300
C638        C  0.08279148  0.74968216  0.43067254    -0.11600
C639        C  0.04719858  0.68512900  0.44964478     0.01200
C640        C  0.03360892  0.67010422  0.46347395    -0.31600
C641        C  0.10890590  0.76257617  0.38993897     0.02600
C642        C  0.12407653  0.77620880  0.37632842    -0.33200
H643        H  0.09464797  0.71263283  0.37374998     0.13700
H644        H  0.06822323  0.67885727  0.39963048     0.13500
H645        H  0.06047975  0.73554012  0.46540765     0.13400
H646        H  0.08692732  0.76932208  0.43952392     0.12400
C647        C  0.90429953  0.74236289  0.58957869     0.18700
C648        C  0.93243832  0.74118315  0.59337316    -0.10400
C649        C  0.94783570  0.72222864  0.57913417    -0.11200
C650        C  0.93515034  0.70428384  0.56111154     0.20300
C651        C  0.90701999  0.70552671  0.55724979    -0.13300
C652        C  0.89162437  0.72448227  0.57148579    -0.11600
C653        C  0.95110707  0.68511898  0.54610531     0.01200
C654        C  0.96509347  0.67033134  0.53269626    -0.31600
C655        C  0.88819549  0.76063601  0.60548693     0.02600
C656        C  0.87382280  0.77348711  0.62038694    -0.33200
H657        H  0.94242204  0.75472087  0.60750511     0.13700
H658        H  0.96958251  0.72152334  0.58221002     0.13500
H659        H  0.89700056  0.69182663  0.54330060     0.13400
H660        H  0.86984610  0.72502635  0.56858989     0.12400
C661        C  0.91303076  0.09131998  0.23355213     0.18700
C662        C  0.93954123  0.09841833  0.22600784    -0.10400
C663        C  0.95325324  0.08335193  0.20633986    -0.11200
C664        C  0.94051905  0.06112619  0.19397914     0.20300
C665        C  0.91407582  0.05391593  0.20164329    -0.13300
C666        C  0.90036394  0.06898088  0.22131193    -0.11600
C667        C  0.95486277  0.04531487  0.17405261     0.01200
C668        C  0.96773225  0.03125072  0.15878112    -0.31600
C669        C  0.89835531  0.10766392  0.25281775     0.02600
C670        C  0.88495145  0.12220519  0.26717564    -0.33200
H671        H  0.94953555  0.11571177  0.23517452     0.13700
H672        H  0.97373966  0.08905265  0.20074576     0.13500
H673        H  0.90404386  0.03668828  0.19239073     0.13400
H674        H  0.87983760  0.06334201  0.22682017     0.12400
C675        C  0.09212986  0.90723051  0.23716678     0.18700
C676        C  0.10166021  0.93179372  0.22637760    -0.10400
C677        C  0.08718764  0.94492135  0.20575908    -0.11200
C678        C  0.06312406  0.93351777  0.19569193     0.20300
C679        C  0.05345574  0.90905379  0.20661782    -0.13300
C680        C  0.06794754  0.89590804  0.22724846    -0.11600
C681        C  0.04791898  0.94747856  0.17491582     0.01200
C682        C  0.03447209  0.96059390  0.15917833    -0.31600
C683        C  0.10822000  0.89273650  0.25687803     0.02600
C684        C  0.12341705  0.87948235  0.27078958    -0.33200
H685        H  0.12044900  0.94063625  0.23367762     0.13700
H686        H  0.09478190  0.96390570  0.19763303     0.13500
H687        H  0.03477746  0.90011803  0.19915165     0.13400
H688        H  0.06048546  0.87680977  0.23522571     0.12400
C689        C  0.06102745  0.30879867  0.56272249     0.18700
C690        C  0.08626061  0.30000803  0.55316388    -0.10400
C691        C  0.10027579  0.27944327  0.56685498    -0.11200
C692        C  0.08912923  0.26742916  0.59013398     0.20300
C693        C  0.06380581  0.27607758  0.59958882    -0.13300
C694        C  0.04978521  0.29664511  0.58589192    -0.11600
C695        C  0.10437163  0.24739607  0.60511205     0.01200
C696        C  0.11849760  0.23259743  0.61861284    -0.31600
C697        C  0.04627305  0.32958030  0.54826048     0.02600
C698        C  0.03285851  0.34538814  0.53516962    -0.33200
H699        H  0.09510253  0.30906664  0.53518363     0.13700
H700        H  0.11991109  0.27308153  0.55942304     0.13500
H701        H  0.05502947  0.26710400  0.61764428     0.13400
H702        H  0.03020780  0.30309583  0.59339400     0.12400
C703        C  0.93658850  0.31007243  0.43685165     0.18700
C704        C  0.94618538  0.30347001  0.41098257    -0.10400
C705        C  0.93341609  0.28311458  0.39586702    -0.11200
C706        C  0.91102506  0.26912471  0.40654140     0.20300
C707        C  0.90141323  0.27571681  0.43242536    -0.13300
C708        C  0.91419561  0.29608275  0.44755405    -0.11600
C709        C  0.89721328  0.24893659  0.39044251     0.01200
C710        C  0.88440891  0.23379438  0.37603958    -0.31600
C711        C  0.95044092  0.33035558  0.45278162     0.02600
C712        C  0.96345167  0.34575015  0.46671605    -0.33200
H713        H  0.96357052  0.31399356  0.40254224     0.13700
H714        H  0.94093754  0.27836358  0.37581814     0.13500
H715        H  0.88401150  0.26520454  0.44084636     0.13400
H716        H  0.90667351  0.30085873  0.46759778     0.12400
C717        C  0.69920314  0.94201192  0.56586310     0.18700
C718        C  0.72653829  0.95005747  0.56617483    -0.10400
C719        C  0.74571673  0.93489570  0.58063783    -0.11200
C720        C  0.73762875  0.91158728  0.59483141     0.20300
C721        C  0.71029674  0.90358942  0.59453287    -0.13300
C722        C  0.69114487  0.91873120  0.58009113    -0.11600
C723        C  0.75700283  0.89576534  0.60996377     0.01200
C724        C  0.77038666  0.88070495  0.62386577    -0.31600
C725        C  0.67962926  0.95742641  0.55055305     0.02600
C726        C  0.66465088  0.97094012  0.53667783    -0.33200
H727        H  0.73302223  0.96800023  0.55518493     0.13700
H728        H  0.76675649  0.94131143  0.58073664     0.13500
H729        H  0.70379433  0.88561646  0.60546849     0.13400
H730        H  0.67012044  0.91225960  0.57996469     0.12400
C731        C  0.73960138  0.09520519  0.40619576     0.18700
C732        C  0.73279117  0.06856124  0.39906509    -0.10400
C733        C  0.71325675  0.05419276  0.41395384    -0.11200
C734        C  0.70031794  0.06640300  0.43602195     0.20300
C735        C  0.70717464  0.09302194  0.44320445    -0.13300
C736        C  0.72671123  0.10739227  0.42831434    -0.11600
C737        C  0.68064172  0.05135126  0.45172903     0.01200
C738        C  0.66548368  0.03800509  0.46568261    -0.31600
C739        C  0.75897723  0.11038576  0.39021966     0.02600
C740        C  0.77367421  0.12397660  0.37599373    -0.33200
H741        H  0.74248139  0.05894686  0.38193376     0.13700
H742        H  0.70825709  0.03358526  0.40827383     0.13500
H743        H  0.69743857  0.10265222  0.46030206     0.13400
H744        H  0.73166728  0.12801961  0.43396077     0.12400
C745        C  0.30542504  0.06509227  0.56316747     0.18700
C746        C  0.28976122  0.08387684  0.54866750    -0.10400
C747        C  0.26937748  0.09845304  0.56178119    -0.11200
C748        C  0.26446888  0.09424461  0.58944298     0.20300
C749        C  0.28004481  0.07536474  0.60392497    -0.13300
C750        C  0.30043470  0.06078594  0.59080825    -0.11600
C751        C  0.24445200  0.11018593  0.60333723     0.01200
C752        C  0.22964999  0.12440824  0.61648145    -0.31600
C753        C  0.32591202  0.04965774  0.54936914     0.02600
C754        C  0.34136688  0.03599643  0.53637050    -0.33200
H755        H  0.29331290  0.08724659  0.52725067     0.13700
H756        H  0.25759242  0.11310928  0.55041127     0.13500
H757        H  0.27654929  0.07206333  0.62536284     0.13400
H758        H  0.31228343  0.04619503  0.60219659     0.12400
C759        C  0.30429808  0.94043078  0.43870069     0.18700
C760        C  0.29291018  0.91656870  0.44929099    -0.10400
C761        C  0.27248791  0.90292344  0.43499439    -0.11200
C762        C  0.26324720  0.91315336  0.41009699     0.20300
C763        C  0.27451235  0.93711118  0.39961311    -0.13300
C764        C  0.29492898  0.95074632  0.41389972    -0.11600
C765        C  0.24384397  0.89800642  0.39429550     0.01200
C766        C  0.23042312  0.88388338  0.37948273    -0.31600
C767        C  0.32489366  0.95482849  0.45368499     0.02600
C768        C  0.34057010  0.96796683  0.46714887    -0.33200
H769        H  0.29986837  0.90848272  0.46852815     0.13700
H770        H  0.26415534  0.88426527  0.44317128     0.13500
H771        H  0.26775327  0.94506100  0.38024900     0.13400
H772        H  0.30345268  0.96925684  0.40558472     0.12400
C773        C  0.59864684  0.58319995  0.76930801     0.18700
C774        C  0.59817041  0.59130940  0.79652572    -0.10400
C775        C  0.58278850  0.57677928  0.81552092    -0.11200
C776        C  0.56779765  0.55403823  0.80739137     0.20300
C777        C  0.56837254  0.54585616  0.78020309    -0.13300
C778        C  0.58375009  0.56039046  0.76120581    -0.11600
C779        C  0.55156585  0.53915965  0.82669808     0.01200
C780        C  0.53717898  0.52564352  0.84124603    -0.31600
C781        C  0.61401990  0.59873051  0.74980289     0.02600
C782        C  0.62701609  0.61358733  0.73524329    -0.33200
H783        H  0.60956625  0.60895776  0.80302264     0.13700
H784        H  0.58248951  0.58332970  0.83645132     0.13500
H785        H  0.55683012  0.52831560  0.77367471     0.13400
H786        H  0.58389911  0.55395152  0.74023984     0.12400
C787        C  0.40706300  0.40181465  0.76510460     0.18700
C788        C  0.39815852  0.42636637  0.77604720    -0.10400
C789        C  0.41373089  0.43964061  0.79569953    -0.11200
C790        C  0.43825064  0.42840645  0.80460038     0.20300
C791        C  0.44714409  0.40380358  0.79372965    -0.13300
C792        C  0.43155336  0.39051292  0.77406304    -0.11600
C793        C  0.45464384  0.44269361  0.82411936     0.01200
C794        C  0.46856109  0.45606696  0.83915964    -0.31600
C795        C  0.39059400  0.38778200  0.74544590     0.02600
C796        C  0.37597169  0.37505576  0.73049273    -0.33200
H797        H  0.37918230  0.43520742  0.76942784     0.13700
H798        H  0.40671145  0.45870893  0.80387135     0.13500
H799        H  0.46612385  0.39497940  0.80036414     0.13400
H800        H  0.43855627  0.37144074  0.76588737     0.12400
C801        C  0.23272591  0.41196827  0.59191009     0.18700
C802        C  0.23967504  0.42320986  0.56672071    -0.10400
C803        C  0.22077157  0.43873023  0.55228821    -0.11200
C804        C  0.19478560  0.44308037  0.56292019     0.20300
C805        C  0.18786388  0.43192230  0.58815445    -0.13300
C806        C  0.20676875  0.41640462  0.60258896    -0.11600
C807        C  0.17544810  0.45913620  0.54792197     0.01200
C808        C  0.16067815  0.47322218  0.53437127    -0.31600
C809        C  0.25186323  0.39541700  0.60663775     0.02600
C810        C  0.26617619  0.38063428  0.61994444    -0.33200
H811        H  0.25962324  0.41989699  0.55820486     0.13700
H812        H  0.22639446  0.44729331  0.53282285     0.13500
H813        H  0.16788516  0.43516618  0.59662979     0.13400
H814        H  0.20111490  0.40777587  0.62201710     0.12400
C815        C  0.19757705  0.57071395  0.43702340     0.18700
C816        C  0.20231788  0.59820939  0.44233629    -0.10400
C817        C  0.22263243  0.61231100  0.42826162    -0.11200
C818        C  0.23841573  0.59899166  0.40884904     0.20300
C819        C  0.23372436  0.57147721  0.40358714    -0.13300
C820        C  0.21341077  0.55737490  0.41766352    -0.11600
C821        C  0.25840718  0.61391609  0.39342674     0.01200
C822        C  0.27325259  0.62743771  0.37930759    -0.31600
C823        C  0.17718195  0.55592245  0.45204645     0.02600
C824        C  0.16165187  0.54251889  0.46553161    -0.33200
H825        H  0.19034007  0.60872871  0.45735127     0.13700
H826        H  0.22591663  0.63361849  0.43238721     0.13500
H827        H  0.24563896  0.56098165  0.38850447     0.13400
H828        H  0.21006476  0.53608981  0.41347212     0.12400
C829        C  0.55661933  0.80828514  0.57451282     0.18700
C830        C  0.57995847  0.81532280  0.58917252    -0.10400
C831        C  0.59290228  0.79596739  0.60543920    -0.11200
C832        C  0.58261361  0.76946514  0.60714124     0.20300
C833        C  0.55914642  0.76249836  0.59266247    -0.13300
C834        C  0.54619742  0.78185617  0.57640393    -0.11600
C835        C  0.59674305  0.74938547  0.62307024     0.01200
C836        C  0.61069243  0.73408222  0.63615198    -0.31600
C837        C  0.54368099  0.82781027  0.55696321     0.02600
C838        C  0.53213501  0.84261491  0.54122158    -0.33200
H839        H  0.58826684  0.83563657  0.58783325     0.13700
H840        H  0.61109401  0.80158950  0.61647039     0.13500
H841        H  0.55104032  0.74209116  0.59372338     0.13400
H842        H  0.52820379  0.77614476  0.56510087     0.12400
C843        C  0.44227375  0.80870374  0.43493075     0.18700
C844        C  0.44912411  0.80338940  0.40792257    -0.10400
C845        C  0.43478081  0.78374332  0.39330514    -0.11200
C846        C  0.41359523  0.76926156  0.40566483     0.20300
C847        C  0.40659127  0.77475943  0.43259189    -0.13300
C848        C  0.42092540  0.79439975  0.44720197    -0.11600
C849        C  0.39841198  0.74953246  0.39040017     0.01200
C850        C  0.38459024  0.73475040  0.37666090    -0.31600
C851        C  0.45783066  0.82790398  0.45048476     0.02600
C852        C  0.47131785  0.84245753  0.46478216    -0.33200
H853        H  0.46564162  0.81426683  0.39825468     0.13700
H854        H  0.44020560  0.77983478  0.37241329     0.13500
H855        H  0.39009076  0.76386925  0.44227597     0.13400
H856        H  0.41550780  0.79828711  0.46810063     0.12400
C857        C  0.43502767  0.19867948  0.55901051     0.18700
C858        C  0.42620124  0.22263562  0.54647231    -0.10400
C859        C  0.41137074  0.24171380  0.56117556    -0.11200
C860        C  0.40532180  0.23698019  0.58853261     0.20300
C861        C  0.41416359  0.21302504  0.60108062    -0.13300
C862        C  0.42899286  0.19394558  0.58637634    -0.11600
C863        C  0.38940145  0.25618655  0.60361398     0.01200
C864        C  0.37510883  0.27043833  0.61732707    -0.31600
C865        C  0.45089943  0.17944392  0.54392547     0.02600
C866        C  0.46521889  0.16480311  0.53066506    -0.33200
H867        H  0.43083622  0.22658503  0.52535796     0.13700
H868        H  0.40457350  0.26007968  0.55121013     0.13500
H869        H  0.40952690  0.20907076  0.62219567     0.13400
H870        H  0.43578583  0.17557500  0.59634078     0.12400
C871        C  0.59671671  0.23924212  0.40694613     0.18700
C872        C  0.59836491  0.23914052  0.43532394    -0.10400
C873        C  0.58403138  0.21971402  0.45043038    -0.11200
C874        C  0.56804884  0.20019719  0.43725827     0.20300
C875        C  0.56645343  0.20027483  0.40888907    -0.13300
C876        C  0.58076945  0.21969086  0.39379468    -0.11600
C877        C  0.55256073  0.18074099  0.45283913     0.01200
C878        C  0.53841546  0.16574117  0.46617553    -0.31600
C879        C  0.61234129  0.25845496  0.39118565     0.02600
C880        C  0.62672463  0.27226270  0.37685035    -0.33200
H881        H  0.61079048  0.25397436  0.44574118     0.13700
H882        H  0.58535920  0.21995239  0.47235783     0.13500
H883        H  0.55410444  0.18538663  0.39845491     0.13400
H884        H  0.57949767  0.21938287  0.37186440     0.12400
C885        C  0.76199983  0.60431767  0.58787414     0.18700
C886        C  0.78476992  0.61746379  0.57690049    -0.10400
C887        C  0.80445077  0.60261981  0.56300435    -0.11200
C888        C  0.80153182  0.57453059  0.56007243     0.20300
C889        C  0.77874277  0.56138861  0.57102889    -0.13300
C890        C  0.75906493  0.57623149  0.58492500    -0.11600
C891        C  0.82143654  0.55922935  0.54523695     0.01200
C892        C  0.83660355  0.54557165  0.53185765    -0.31600
C893        C  0.74244800  0.61946622  0.60329310     0.02600
C894        C  0.72781722  0.63231034  0.61799126    -0.33200
H895        H  0.78738376  0.63913099  0.57923430     0.13700
H896        H  0.82191465  0.61303468  0.55455885     0.13500
H897        H  0.77619645  0.53969927  0.56882437     0.13400
H898        H  0.74167409  0.56579473  0.59349993     0.12400
C899        C  0.76381945  0.41378478  0.40793582     0.18700
C900        C  0.78251351  0.40186090  0.42576970    -0.10400
C901        C  0.80156199  0.41793948  0.43941093    -0.11200
C902        C  0.80213085  0.44603889  0.43525358     0.20300
C903        C  0.78336568  0.45799725  0.41751137    -0.13300
C904        C  0.76430879  0.44190666  0.40385456    -0.11600
C905        C  0.82141420  0.46263645  0.44977237     0.01200
C906        C  0.83634724  0.47678675  0.46309384    -0.31600
C907        C  0.74535787  0.39693154  0.39265915     0.02600
C908        C  0.73235533  0.38178983  0.37844435    -0.33200
H909        H  0.78252031  0.38013219  0.42893325     0.13700
H910        H  0.81586494  0.40845484  0.45316056     0.13500
H911        H  0.78350029  0.47970564  0.41421235     0.13400
H912        H  0.75013456  0.45135712  0.38995089     0.12400
C913        C  0.40954158  0.59388769  0.23361556     0.18700
C914        C  0.43340384  0.58051170  0.24113912    -0.10400
C915        C  0.44782422  0.56554181  0.22197442    -0.11200
C916        C  0.43848441  0.56387082  0.19516406     0.20300
C917        C  0.41470215  0.57737617  0.18757035    -0.13300
C918        C  0.40027447  0.59236274  0.20674760    -0.11600
C919        C  0.45296669  0.54754065  0.17589622     0.01200
C920        C  0.46578006  0.53252843  0.16159482    -0.31600
C921        C  0.39467866  0.60948340  0.25323143     0.02600
C922        C  0.38141281  0.62362387  0.26802664    -0.33200
H923        H  0.44082315  0.58160044  0.26180238     0.13700
H924        H  0.46614579  0.55512329  0.22809087     0.13500
H925        H  0.40723419  0.57618226  0.16692768     0.13400
H926        H  0.38189248  0.60269489  0.20066405     0.12400
C927        C  0.59173807  0.40446962  0.23879297     0.18700
C928        C  0.57694889  0.39006623  0.21921321    -0.10400
C929        C  0.56127206  0.40390603  0.19995123    -0.11200
C930        C  0.56031048  0.43228372  0.20004941     0.20300
C931        C  0.57495578  0.44669635  0.21974363    -0.13300
C932        C  0.59064864  0.43284910  0.23901073    -0.11600
C933        C  0.54419416  0.44665244  0.18016869     0.01200
C934        C  0.53039985  0.45973003  0.16463904    -0.31600
C935        C  0.60901382  0.39006795  0.25763064     0.02600
C936        C  0.62458863  0.37672069  0.27108472    -0.33200
H937        H  0.57774489  0.36814017  0.21867602     0.13700
H938        H  0.55002809  0.39249157  0.18491881     0.13500
H939        H  0.57435409  0.46863309  0.22011478     0.13400
H940        H  0.60210459  0.44426381  0.25388434     0.12400
C941        C  0.44251589  0.06974533  0.69637211     0.18700
C942        C  0.45575998  0.08512932  0.71628724    -0.10400
C943        C  0.44076805  0.09759556  0.73680360    -0.11200
C944        C  0.41250479  0.09458223  0.73755788     0.20300
C945        C  0.39929384  0.07931751  0.71755959    -0.13300
C946        C  0.41425713  0.06689074  0.69706699    -0.11600
C947        C  0.39667067  0.10836947  0.75769976     0.01200
C948        C  0.38138537  0.12140358  0.77147975    -0.31600
C949        C  0.45799547  0.05563121  0.67617809     0.02600
C950        C  0.47127231  0.04193382  0.66102427    -0.33200
H951        H  0.47762572  0.08733392  0.71603814     0.13700
H952        H  0.45117362  0.10960998  0.75197754     0.13500
H953        H  0.37742485  0.07711343  0.71776296     0.13400
H954        H  0.40381285  0.05492078  0.68188144     0.12400
C955        C  0.56001432  0.93838378  0.69946867     0.18700
C956        C  0.57949024  0.95106572  0.71590650    -0.10400
C957        C  0.59250324  0.93646487  0.73653276    -0.11200
C958        C  0.58603274  0.90912204  0.74095580     0.20300
C959        C  0.56648586  0.89647127  0.72457267    -0.13300
C960        C  0.55347604  0.91107068  0.70394448    -0.11600
C961        C  0.60069514  0.89351316  0.76095014     0.01200
C962        C  0.61456257  0.87900559  0.77501294    -0.31600
C963        C  0.54621522  0.95368059  0.67864409     0.02600
C964        C  0.53393919  0.96776061  0.66277902    -0.33200
H965        H  0.58463734  0.97219953  0.71274564     0.13700
H966        H  0.60777333  0.94642057  0.74884435     0.13500
H967        H  0.56150254  0.87527758  0.72757780     0.13400
H968        H  0.53837446  0.90105512  0.69147567     0.12400
C969        C  0.80355700  0.05843169  0.05840547     0.18700
C970        C  0.79502301  0.04847497  0.08365932    -0.10400
C971        C  0.77500585  0.06211616  0.09829752    -0.11200
C972        C  0.76329068  0.08574353  0.08771219     0.20300
C973        C  0.77164770  0.09556530  0.06234457    -0.13300
C974        C  0.79166785  0.08192225  0.04770440    -0.11600
C975        C  0.74434892  0.10103840  0.10375995     0.01200
C976        C  0.73124471  0.11555493  0.11834838    -0.31600
C977        C  0.82384382  0.04406498  0.04314002     0.02600
C978        C  0.83927189  0.03076928  0.02968771    -0.33200
H979        H  0.80391945  0.03023968  0.09208012     0.13700
H980        H  0.76893193  0.05445535  0.11799112     0.13500
H981        H  0.76295082  0.11395471  0.05405074     0.13400
H982        H  0.79794478  0.08973541  0.02813462     0.12400
C983        C  0.75783938  0.90596820  0.90948249     0.18700
C984        C  0.76997547  0.89429442  0.93244019    -0.10400
C985        C  0.79133997  0.90763328  0.94566437    -0.11200
C986        C  0.80082625  0.93266570  0.93593842     0.20300
C987        C  0.78867043  0.94434492  0.91300367    -0.13300
C988        C  0.76731180  0.93101217  0.89978616    -0.11600
C989        C  0.82216912  0.94694518  0.95010134     0.01200
C990        C  0.83827813  0.96027878  0.96292220    -0.31600
C991        C  0.73704102  0.89140058  0.89481609     0.02600
C992        C  0.72226345  0.87766835  0.88087674    -0.33200
H993        H  0.76307221  0.87481054  0.93997654     0.13700
H994        H  0.80043026  0.89844636  0.96346352     0.13500
H995        H  0.79568126  0.96375114  0.90536530     0.13400
H996        H  0.75833687  0.94012847  0.88189232     0.12400
C997        C  0.19881157  0.93468782  0.06175063     0.18700
C998        C  0.21167681  0.91235054  0.04998999    -0.10400
C999        C  0.23153271  0.89808096  0.06445242    -0.11200
C1000       C  0.23873754  0.90611190  0.09073589     0.20300
C1001       C  0.22586228  0.92844429  0.10249174    -0.13300
C1002       C  0.20600905  0.94270927  0.08803316    -0.11600
C1003       C  0.25845097  0.89082616  0.10608734     0.01200
C1004       C  0.27325772  0.87715963  0.12004850    -0.31600
C1005       C  0.17898893  0.94991527  0.04649622     0.02600
C1006       C  0.16383449  0.96350777  0.03285162    -0.33200
H1007       H  0.20640948  0.90601809  0.02964261     0.13700
H1008       H  0.24118177  0.88075056  0.05518644     0.13500
H1009       H  0.23109763  0.93475845  0.12285280     0.13400
H1010       H  0.19633169  0.96001510  0.09731634     0.12400
C1011       C  0.19885733  0.06162545  0.93534140     0.18700
C1012       C  0.20573248  0.08803518  0.94322678    -0.10400
C1013       C  0.22562287  0.10259763  0.92902135    -0.11200
C1014       C  0.23886126  0.09080318  0.90690555     0.20300
C1015       C  0.23207219  0.06435287  0.89908494    -0.13300
C1016       C  0.21218112  0.04978772  0.91329288    -0.11600
C1017       C  0.25801639  0.10647405  0.89119124     0.01200
C1018       C  0.27158559  0.12075448  0.87656263    -0.31600
C1019       C  0.17882674  0.04635947  0.95038253     0.02600
C1020       C  0.16355581  0.03268555  0.96389536    -0.33200
H1021       H  0.19570044  0.09737440  0.96031407     0.13700
H1022       H  0.23048945  0.12311647  0.93511191     0.13500
H1023       H  0.24195979  0.05509347  0.88186790     0.13400
H1024       H  0.20716953  0.02934331  0.90707367     0.12400
C1025       C  0.56702385  0.06484741  0.30217904     0.18700
C1026       C  0.58895917  0.05254587  0.28909504    -0.10400
C1027       C  0.60310655  0.06646605  0.26871960    -0.11200
C1028       C  0.59534557  0.09273785  0.26119704     0.20300
C1029       C  0.57341252  0.10504766  0.27428855    -0.13300
C1030       C  0.55926115  0.09112401  0.29466743    -0.11600
C1031       C  0.61088235  0.10765060  0.24129298     0.01200
C1032       C  0.62548371  0.12122696  0.22697697    -0.31600
C1033       C  0.55184395  0.05008678  0.32246447     0.02600
C1034       C  0.53812325  0.03676289  0.33784653    -0.33200
H1035       H  0.59508297  0.03219707  0.29460469     0.13700
H1036       H  0.62018789  0.05681827  0.25896374     0.13500
H1037       H  0.56737238  0.12544502  0.26886806     0.13400
H1038       H  0.54225919  0.10081631  0.30451704     0.12400
C1039       C  0.41163017  0.90948667  0.26413704     0.18700
C1040       C  0.43461889  0.89850736  0.27674260    -0.10400
C1041       C  0.44846348  0.91321549  0.29668181    -0.11200
C1042       C  0.43934423  0.93896320  0.30422227     0.20300
C1043       C  0.41623878  0.94987328  0.29175934    -0.13300
C1044       C  0.40238643  0.93515725  0.27181431    -0.11600
C1045       C  0.45440727  0.95466218  0.32377267     0.01200
C1046       C  0.46810125  0.96856063  0.33857455    -0.31600
C1047       C  0.39694331  0.89393144  0.24418589     0.02600
C1048       C  0.38362708  0.87974704  0.22931052    -0.33200
H1049       H  0.44182798  0.87858486  0.27116694     0.13700
H1050       H  0.46635569  0.90460360  0.30607331     0.13500
H1051       H  0.40904922  0.96980566  0.29732532     0.13400
H1052       H  0.38450408  0.94377031  0.26240524     0.12400
C1053       C  0.58417596  0.73466365  0.90767507     0.18700
C1054       C  0.56789715  0.71633480  0.89319129    -0.10400
C1055       C  0.55433996  0.69526539  0.90675430    -0.11200
C1056       C  0.55706110  0.69228909  0.93490528     0.20300
C1057       C  0.57333428  0.71061581  0.94937237    -0.13300
C1058       C  0.58688334  0.73167458  0.93581653    -0.11600
C1059       C  0.54250972  0.67113212  0.94919605     0.01200
C1060       C  0.52959405  0.65523218  0.96277961    -0.31600
C1061       C  0.59931306  0.75542549  0.89340821     0.02600
C1062       C  0.61358081  0.77025970  0.87997575    -0.33200
H1063       H  0.56583099  0.71822269  0.87138959     0.13700
H1064       H  0.54175508  0.68134591  0.89531909     0.13500
H1065       H  0.57553231  0.70863808  0.97115323     0.13400
H1066       H  0.59959116  0.74549163  0.94723941     0.12400
C1067       C  0.41087338  0.73164277  0.09283107     0.18700
C1068       C  0.39830502  0.71787707  0.07137647    -0.10400
C1069       C  0.41210228  0.69729547  0.05774910    -0.11200
C1070       C  0.43851225  0.69027765  0.06555825     0.20300
C1071       C  0.45104665  0.70396731  0.08707666    -0.13300
C1072       C  0.43724568  0.72455104  0.10070866    -0.11600
C1073       C  0.45319891  0.67004969  0.05060640     0.01200
C1074       C  0.46609189  0.65482129  0.03658893    -0.31600
C1075       C  0.39626583  0.75213580  0.10751959     0.02600
C1076       C  0.38298859  0.76748378  0.12105414    -0.33200
H1077       H  0.37784604  0.72301198  0.06522883     0.13700
H1078       H  0.40225590  0.68698105  0.04104233     0.13500
H1079       H  0.47151595  0.69884700  0.09319943     0.13400
H1080       H  0.44709964  0.73488396  0.11739742     0.12400
C1081       C  0.59441771  0.25658539  0.09058954     0.18700
C1082       C  0.60707436  0.27788177  0.07648800    -0.10400
C1083       C  0.59147663  0.29751950  0.06319498    -0.11200
C1084       C  0.56310074  0.29605664  0.06397815     0.20300
C1085       C  0.55042599  0.27470365  0.07799181    -0.13300
C1086       C  0.56603450  0.25505784  0.09130260    -0.11600
C1087       C  0.54697533  0.31595490  0.04981115     0.01200
C1088       C  0.53271531  0.33117395  0.03695785    -0.31600
C1089       C  0.61066370  0.23734768  0.10551319     0.02600
C1090       C  0.62564294  0.22380353  0.11938606    -0.33200
H1091       H  0.62899597  0.27942645  0.07596214     0.13700
H1092       H  0.60153283  0.31383503  0.05234845     0.13500
H1093       H  0.52850258  0.27326812  0.07865121     0.13400
H1094       H  0.55599030  0.23883955  0.10230280     0.12400
C1095       C  0.40520132  0.25993435  0.90726607     0.18700
C1096       C  0.42029868  0.25092718  0.92959604    -0.10400
C1097       C  0.43435927  0.26959614  0.94569234    -0.11200
C1098       C  0.43336322  0.29734634  0.93954954     0.20300
C1099       C  0.41836605  0.30633796  0.91714464    -0.13300
C1100       C  0.40431488  0.28767694  0.90105260    -0.11600
C1101       C  0.44806978  0.31642094  0.95606110     0.01200
C1102       C  0.46150003  0.33112651  0.97026327    -0.31600
C1103       C  0.39009462  0.24100137  0.89094219     0.02600
C1104       C  0.37606816  0.22740845  0.87620978    -0.33200
H1105       H  0.42110808  0.22955227  0.93461025     0.13700
H1106       H  0.44597917  0.26241148  0.96292381     0.13500
H1107       H  0.41752183  0.32771753  0.91214357     0.13400
H1108       H  0.39267147  0.29487835  0.88384056     0.12400
C1109       C  0.09456950  0.75916117  0.09004838     0.18700
C1110       C  0.09588131  0.75912567  0.06165839    -0.10400
C1111       C  0.08173325  0.77863935  0.04659737    -0.11200
C1112       C  0.06629182  0.79838073  0.05982768     0.20300
C1113       C  0.06485928  0.79829399  0.08819884    -0.13300
C1114       C  0.07898411  0.77879313  0.10324430    -0.11600
C1115       C  0.05134036  0.81822562  0.04432042     0.01200
C1116       C  0.03760851  0.83351051  0.03096025    -0.31600
C1117       C  0.11037939  0.74018845  0.10578466     0.02600
C1118       C  0.12497284  0.72677156  0.12019694    -0.33200
H1119       H  0.10800371  0.74420672  0.05120787     0.13700
H1120       H  0.08289218  0.77837574  0.02466202     0.13500
H1121       H  0.05289340  0.81332152  0.09867436     0.13400
H1122       H  0.07795540  0.77918361  0.12518557     0.12400
C1123       C  0.90608773  0.75681844  0.91140752     0.18700
C1124       C  0.92827383  0.76968987  0.89901623    -0.10400
C1125       C  0.94287394  0.78970386  0.91290576    -0.11200
C1126       C  0.93531531  0.79707444  0.93923770     0.20300
C1127       C  0.91330870  0.78400742  0.95173907    -0.13300
C1128       C  0.89870312  0.76399135  0.93784570    -0.11600
C1129       C  0.95059342  0.81745288  0.95367528     0.01200
C1130       C  0.96455074  0.83305087  0.96642010    -0.31600
C1131       C  0.88979207  0.73775300  0.89629681     0.02600
C1132       C  0.87484807  0.72430850  0.88227431    -0.33200
H1133       H  0.93406367  0.76450508  0.87850906     0.13700
H1134       H  0.95995259  0.79950881  0.90307799     0.13500
H1135       H  0.90736856  0.78937881  0.97215245     0.13400
H1136       H  0.88146770  0.75436911  0.94757506     0.12400
C1137       C  0.90347000  0.59169326  0.73988056     0.18700
C1138       C  0.89450974  0.59271397  0.71288192    -0.10400
C1139       C  0.90889390  0.57930201  0.69253922    -0.11200
C1140       C  0.93238492  0.56478684  0.69906394     0.20300
C1141       C  0.94133955  0.56373016  0.72606571    -0.13300
C1142       C  0.92694811  0.57715444  0.74642145    -0.11600
C1143       C  0.94734302  0.55086020  0.67824812     0.01200
C1144       C  0.96112131  0.53826242  0.66252354    -0.31600
C1145       C  0.88859313  0.60597263  0.76051807     0.02600
C1146       C  0.87437721  0.61946611  0.77506382    -0.33200
H1147       H  0.87641030  0.60394808  0.70754374     0.13700
H1148       H  0.90173680  0.58027251  0.67179108     0.13500
H1149       H  0.95947455  0.55254572  0.73137638     0.13400
H1150       H  0.93413226  0.57624754  0.76716134     0.12400
C1151       C  0.05977331  0.44254010  0.69781934     0.18700
C1152       C  0.04589008  0.43001871  0.71930977    -0.10400
C1153       C  0.06018543  0.41546776  0.73909634    -0.11200
C1154       C  0.08848130  0.41344524  0.73756145     0.20300
C1155       C  0.10237692  0.42610806  0.71616026    -0.13300
C1156       C  0.08808483  0.44064754  0.69637453    -0.11600
C1157       C  0.10321378  0.39713469  0.75689452     0.01200
C1158       C  0.11695470  0.38202756  0.77040929    -0.31600
C1159       C  0.04495916  0.45776795  0.67766958     0.02600
C1160       C  0.03154861  0.47135149  0.66230768    -0.33200
H1161       H  0.02400266  0.43143049  0.72072050     0.13700
H1162       H  0.04919002  0.40561196  0.75539316     0.13500
H1163       H  0.12424442  0.42451668  0.71462160     0.13400
H1164       H  0.09906603  0.45031115  0.67995262     0.12400
C1165       C  0.91295586  0.23220858  0.09140990     0.18700
C1166       C  0.89908983  0.20893888  0.08267916    -0.10400
C1167       C  0.91277862  0.18885669  0.06822519    -0.11200
C1168       C  0.94044357  0.19190219  0.06247604     0.20300
C1169       C  0.95432008  0.21514779  0.07123625    -0.13300
C1170       C  0.94063049  0.23523164  0.08569273    -0.11600
C1171       C  0.95449179  0.17175041  0.04683479     0.01200
C1172       C  0.96728637  0.15665468  0.03259189    -0.31600
C1173       C  0.89880544  0.25248348  0.10682127     0.02600
C1174       C  0.88549800  0.26750977  0.12067846    -0.33200
H1175       H  0.87770879  0.20631282  0.08707715     0.13700
H1176       H  0.90179757  0.17105652  0.06146397     0.13500
H1177       H  0.97569039  0.21778756  0.06679754     0.13400
H1178       H  0.95160157  0.25304939  0.09241753     0.12400
C1179       C  0.06037735  0.19516028  0.93245714     0.18700
C1180       C  0.05344781  0.22250946  0.93574487    -0.10400
C1181       C  0.06778396  0.24280799  0.92182300    -0.11200
C1182       C  0.08916425  0.23588361  0.90454356     0.20300
C1183       C  0.09609311  0.20853780  0.90129382    -0.13300
C1184       C  0.08176838  0.18825916  0.91519965    -0.11600
C1185       C  0.10394166  0.25649944  0.88975561     0.01200
C1186       C  0.11774409  0.27113167  0.87566190    -0.31600
C1187       C  0.04567622  0.17436317  0.94705763     0.02600
C1188       C  0.03265487  0.15845452  0.96049681    -0.33200
H1189       H  0.03698105  0.22812742  0.94907134     0.13700
H1190       H  0.06217934  0.26383344  0.92449967     0.13500
H1191       H  0.11255206  0.20289591  0.88796515     0.13400
H1192       H  0.08737965  0.16723594  0.91250158     0.12400
C1193       C  0.06139524  0.56827394  0.30088291     0.18700
C1194       C  0.05949787  0.56092222  0.27348804    -0.10400
C1195       C  0.07497808  0.57456641  0.25388429    -0.11200
C1196       C  0.09243298  0.59566530  0.26158197     0.20300
C1197       C  0.09429437  0.60301099  0.28896696    -0.13300
C1198       C  0.07883359  0.58938133  0.30854781    -0.11600
C1199       C  0.10866627  0.60984861  0.24171063     0.01200
C1200       C  0.12365145  0.62328912  0.22767053    -0.31600
C1201       C  0.04556022  0.55400762  0.32101922     0.02600
C1202       C  0.03175043  0.54098332  0.33657670    -0.33200
H1203       H  0.04609474  0.54461258  0.26729949     0.13700
H1204       H  0.07337004  0.56865948  0.23281756     0.13500
H1205       H  0.10774722  0.61926955  0.29518997     0.13400
H1206       H  0.08051528  0.59525621  0.32961979     0.12400
C1207       C  0.91056890  0.41015118  0.26275399     0.18700
C1208       C  0.93508837  0.40112130  0.27395855    -0.10400
C1209       C  0.94813751  0.41627731  0.29411836    -0.11200
C1210       C  0.93671057  0.44052629  0.30330506     0.20300
C1211       C  0.91219684  0.44957167  0.29209336    -0.13300
C1212       C  0.89914373  0.43441142  0.27193052    -0.11600
C1213       C  0.95073205  0.45665176  0.32332961     0.01200
C1214       C  0.96368284  0.47098093  0.33841875    -0.31600
C1215       C  0.89646556  0.39387238  0.24290515     0.02600
C1216       C  0.88342141  0.37921716  0.22820803    -0.33200
H1217       H  0.94404429  0.38231080  0.26721248     0.13700
H1218       H  0.96715352  0.40913474  0.30247909     0.13500
H1219       H  0.90322134  0.46835946  0.29887687     0.13400
H1220       H  0.88010284  0.44152707  0.26360326     0.12400
C1221       C  0.26265016  0.58640879  0.09286350     0.18700
C1222       C  0.26449863  0.58883499  0.06462309    -0.10400
C1223       C  0.28388674  0.57394847  0.05039784    -0.11200
C1224       C  0.30161747  0.55663655  0.06433038     0.20300
C1225       C  0.29979765  0.55422756  0.09258634    -0.13300
C1226       C  0.28040131  0.56912020  0.10681680    -0.11600
C1227       C  0.32105329  0.54083475  0.04944818     0.01200
C1228       C  0.33580118  0.52704303  0.03576809    -0.31600
C1229       C  0.24367584  0.60275625  0.10772411     0.02600
C1230       C  0.23030794  0.61785033  0.12142021    -0.33200
H1231       H  0.25109173  0.60233419  0.05364227     0.13700
H1232       H  0.28504426  0.57592152  0.02854519     0.13500
H1233       H  0.31332741  0.54086356  0.10358273     0.13400
H1234       H  0.27935640  0.56729011  0.12868896     0.12400
C1235       C  0.25688692  0.40440465  0.90898957     0.18700
C1236       C  0.26013699  0.43241840  0.90544788    -0.10400
C1237       C  0.28062986  0.44631001  0.91942745    -0.11200
C1238       C  0.29809755  0.43225983  0.93695579     0.20300
C1239       C  0.29480262  0.40425327  0.94054937    -0.13300
C1240       C  0.27430763  0.39036269  0.92657211    -0.11600
C1241       C  0.31871652  0.44678027  0.95189693     0.01200
C1242       C  0.33440719  0.45990138  0.96542367    -0.31600
C1243       C  0.23699476  0.38973333  0.89326567     0.02600
C1244       C  0.22296210  0.37623834  0.87839000    -0.33200
H1245       H  0.24700259  0.44347407  0.89171037     0.13700
H1246       H  0.28286633  0.46797318  0.91656290     0.13500
H1247       H  0.30807054  0.39316027  0.95412626     0.13400
H1248       H  0.27220223  0.36866549  0.92927779     0.12400
C1249       C  0.69492110  0.55729492  0.94002008     0.18700
C1250       C  0.70265261  0.58330152  0.94840321    -0.10400
C1251       C  0.72277490  0.59759541  0.93428207    -0.11200
C1252       C  0.73540109  0.58594362  0.91173972     0.20300
C1253       C  0.72770545  0.55990583  0.90335797    -0.13300
C1254       C  0.70757168  0.54559353  0.91749939    -0.11600
C1255       C  0.75484595  0.60149440  0.89625563     0.01200
C1256       C  0.76849036  0.61626077  0.88218146    -0.31600
C1257       C  0.67475027  0.54227931  0.95509299     0.02600
C1258       C  0.65935705  0.52885606  0.96869557    -0.33200
H1259       H  0.69313248  0.59252632  0.96584529     0.13700
H1260       H  0.72832182  0.61781120  0.94079387     0.13500
H1261       H  0.73709125  0.55077522  0.88579274     0.13400
H1262       H  0.70187418  0.52545146  0.91088820     0.12400
C1263       C  0.73552109  0.40120567  0.09103441     0.18700
C1264       C  0.73627387  0.42956508  0.08998111    -0.10400
C1265       C  0.71572066  0.44380587  0.07658897    -0.11200
C1266       C  0.69424568  0.42979719  0.06423590     0.20300
C1267       C  0.69342447  0.40142757  0.06534090    -0.13300
C1268       C  0.71399454  0.38717307  0.07875159    -0.11600
C1269       C  0.67377853  0.44464417  0.04958937     0.01200
C1270       C  0.65855461  0.45847047  0.03633166    -0.31600
C1271       C  0.75621389  0.38654043  0.10557282     0.02600
C1272       C  0.77189716  0.37348951  0.11909910    -0.33200
H1273       H  0.75268870  0.44064609  0.09954324     0.13700
H1274       H  0.71663655  0.46573826  0.07575840     0.13500
H1275       H  0.67700124  0.39036543  0.05576884     0.13400
H1276       H  0.71309105  0.36524108  0.07959168     0.12400
loop_ 
_geom_bond_atom_site_label_1 
_geom_bond_atom_site_label_2 
_geom_bond_distance 
_geom_bond_site_symmetry_2 
_ccdc_geom_bond_type 
Zn1           O5   1.971       .  S
Zn1           O6   2.030       .  S
Zn1          O10   2.028       .  S
Zn1          O17   2.030       .  S
Zn2           O5   1.971   1_556  S
Zn2           O7   2.029       .  S
Zn2           O9   2.023       .  S
Zn2          O13   2.025       .  S
Zn3           O5   1.974       .  S
Zn3           O8   2.035       .  S
Zn3          O11   2.031       .  S
Zn3          O14   2.034       .  S
Zn4           O5   1.976   1_556  S
Zn4          O12   2.039       .  S
Zn4          O15   2.028       .  S
Zn4          O16   2.038       .  S
O6           C18   1.274       .  A
O7           C19   1.273   1_556  A
O8           C20   1.274       .  A
O9           C18   1.273   1_556  A
O10          C20   1.274       .  A
O11          C19   1.274       .  A
O12          C21   1.275   1_556  A
O13          C22   1.273       .  A
O14          C21   1.275       .  A
O15          C22   1.274       .  A
O16          C23   1.275       .  A
O17          C23   1.274   1_554  A
C18          C97   1.466       .  S
C19         C225   1.467       .  S
C20         C351   1.468       .  S
C21         C103   1.470       .  S
C22         C427   1.464       .  S
C23         C231   1.469       .  S
Zn24         O28   1.972   1_565  S
Zn24         O29   2.024       .  S
Zn24         O33   2.020       .  S
Zn24         O40   2.032       .  S
Zn25         O28   1.972       .  S
Zn25         O30   2.032       .  S
Zn25         O32   2.034       .  S
Zn25         O36   2.028       .  S
Zn26         O28   1.973   1_565  S
Zn26         O31   2.030       .  S
Zn26         O34   2.032       .  S
Zn26         O37   2.029       .  S
Zn27         O28   1.973       .  S
Zn27         O35   2.033       .  S
Zn27         O38   2.032       .  S
Zn27         O39   2.032       .  S
O29          C41   1.273   1_565  A
O30          C42   1.274       .  A
O31          C43   1.274       .  A
O32          C41   1.274       .  A
O33          C43   1.273       .  A
O34          C42   1.274   1_565  A
O35          C44   1.274       .  A
O36          C45   1.274       .  A
O37          C44   1.274   1_565  A
O38          C45   1.274       .  A
O39          C46   1.274       .  A
O40          C46   1.274   1_565  A
C41         C276   1.467       .  S
C42         C487   1.468       .  S
C43         C392   1.464       .  S
C44         C235   1.467       .  S
C45         C388   1.467       .  S
C46         C481   1.468       .  S
Zn47         O51   1.974   1_455  S
Zn47         O52   2.034       .  S
Zn47         O56   2.033       .  S
Zn47         O63   2.037       .  S
Zn48         O51   1.976       .  S
Zn48         O53   2.033       .  S
Zn48         O55   2.037       .  S
Zn48         O59   2.034       .  S
Zn49         O51   1.977   1_455  S
Zn49         O54   2.035       .  S
Zn49         O57   2.032       .  S
Zn49         O60   2.037       .  S
Zn50         O51   1.973       .  S
Zn50         O58   2.034       .  S
Zn50         O61   2.033       .  S
Zn50         O62   2.038       .  S
O52          C64   1.275   1_455  A
O53          C65   1.275       .  A
O54          C66   1.276       .  A
O55          C64   1.276       .  A
O56          C66   1.276       .  A
O57          C65   1.275   1_455  A
O58          C67   1.275       .  A
O59          C68   1.275       .  A
O60          C67   1.276   1_455  A
O61          C68   1.275       .  A
O62          C69   1.276       .  A
O63          C69   1.275   1_455  A
C64         C121   1.479       .  S
C65         C503   1.476       .  S
C66         C421   1.478       .  S
C67         C107   1.479       .  S
C68         C357   1.478       .  S
C69         C491   1.480       .  S
Zn70         O74   1.978       .  S
Zn70         O75   2.036       .  S
Zn70         O79   2.036       .  S
Zn70         O86   2.041       .  S
Zn71         O74   1.975   1_544  S
Zn71         O76   2.034       .  S
Zn71         O78   2.036       .  S
Zn71         O82   2.033       .  S
Zn72         O74   1.975   1_645  S
Zn72         O77   2.021       .  S
Zn72         O80   2.029       .  S
Zn72         O83   2.037       .  S
Zn73         O74   1.976   1_654  S
Zn73         O81   2.039       .  S
Zn73         O84   2.037       .  S
Zn73         O85   2.036       .  S
O75          C87   1.274       .  A
O76          C88   1.274   1_554  A
O77          C89   1.273   1_645  A
O78          C87   1.274   1_544  A
O79          C89   1.275       .  A
O80          C88   1.273   1_655  A
O81          C90   1.275   1_554  A
O82          C91   1.275   1_545  A
O83          C90   1.274   1_545  A
O84          C91   1.275   1_655  A
O85          C92   1.275   1_654  A
O86          C92   1.275       .  A
C87         C243   1.470       .  S
C88         C113   1.468       .  S
C89         C557   1.466       .  S
C90         C249   1.472       .  S
C91         C497   1.470       .  S
C92         C148   1.471       .  S
C93          N94   1.354       .  A
C93          N98   1.358       .  A
C93        C1270   1.436       .  S
N94          C95   1.354   1_554  A
C95          N96   1.360       .  A
C95        C1258   1.438       .  S
N96          C97   1.362   1_556  A
C97          N98   1.361       .  A
C99         N100   1.354       .  A
C99         N104   1.359       .  A
C99        C1228   1.437       .  S
N100        C101   1.354   1_554  A
C101        N102   1.361       .  A
C101       C1242   1.439       .  S
N102        C103   1.363   1_556  A
C103        N104   1.361       .  A
C105        N106   1.360       .  A
C105        N110   1.354   1_455  A
C105       C1202   1.439       .  S
N106        C107   1.364   1_455  A
C107        N108   1.364       .  A
N108        C109   1.360       .  A
C109        N110   1.354       .  A
C109       C1214   1.439       .  S
C111        N112   1.359       .  A
C111        N116   1.354   1_554  A
C111       C1172   1.437       .  S
N112        C113   1.361   1_654  A
C113        N114   1.363       .  A
N114        C115   1.361       .  A
C115        N116   1.354   1_455  A
C115       C1188   1.439       .  S
C117        N118   1.353       .  A
C117        N122   1.360       .  A
C117       C1144   1.438       .  S
N118        C119   1.353   1_655  A
C119        N120   1.360       .  A
C119       C1160   1.438       .  S
N120        C121   1.364   1_455  A
C121        N122   1.364       .  A
Zn123       O127   1.974       .  S
Zn123       O128   2.057       .  S
Zn123       O132   2.062       .  S
Zn123       O139   2.058       .  S
Zn124       O127   1.962       .  S
Zn124       O129   2.022       .  S
Zn124       O131   1.990       .  S
Zn124       O135   2.020       .  S
Zn125       O127   1.963       .  S
Zn125       O130   1.989       .  S
Zn125       O133   2.022       .  S
Zn125       O136   2.013       .  S
Zn126       O127   1.953       .  S
Zn126       O134   2.020       .  S
Zn126       O137   2.017       .  S
Zn126       O138   1.989       .  S
O128        C140   1.278       .  A
O129        C141   1.273       .  A
O130        C142   1.270       .  A
O131        C140   1.270       .  A
O132        C142   1.278       .  A
O133        C141   1.273       .  A
O134        C143   1.272       .  A
O135        C144   1.271       .  A
O136        C143   1.270       .  A
O137        C144   1.271       .  A
O138        C145   1.270       .  A
O139        C145   1.278       .  A
C140       C1244   1.437       .  S
C141        C299   1.473       .  S
C142       C1186   1.439       .  S
C143        C602   1.458       .  S
C144        C449   1.458       .  S
C145       C1158   1.437       .  S
C146        N147   1.361       .  A
C146        N151   1.354   1_554  A
C146       C1116   1.439       .  S
N147        C148   1.363   1_554  A
C148        N149   1.363   1_455  A
N149        C150   1.360       .  A
C150        N151   1.354   1_655  A
C150       C1130   1.438       .  S
Zn152       O156   1.956       .  S
Zn152       O157   2.002       .  S
Zn152       O161   1.993       .  S
Zn152       O168   2.010       .  S
Zn153       O156   1.962       .  S
Zn153       O158   1.988       .  S
Zn153       O160   2.017       .  S
Zn153       O164   2.023       .  S
Zn154       O156   1.973       .  S
Zn154       O159   2.058       .  S
Zn154       O162   2.060       .  S
Zn154       O165   2.059       .  S
Zn155       O156   1.952       .  S
Zn155       O163   1.992       .  S
Zn155       O166   1.997       .  S
Zn155       O167   2.007       .  S
O157        C169   1.270       .  A
O158        C170   1.270       .  A
O159        C171   1.278       .  A
O160        C169   1.273       .  A
O161        C171   1.271       .  A
O162        C170   1.278       .  A
O163        C172   1.271       .  A
O164        C173   1.271       .  A
O165        C172   1.278       .  A
O166        C173   1.269       .  A
O167        C174   1.270       .  A
O168        C174   1.271       .  A
C169        C576   1.466       .  S
C170       C1146   1.438       .  S
C171       C1132   1.438       .  S
C172       C1256   1.437       .  S
C173        C471   1.460       .  S
C174        C270   1.468       .  S
Zn175       O179   1.866       .  S
Zn175       O180   1.923       .  S
Zn175       O184   1.921       .  S
Zn175       O191   1.873       .  S
Zn176       O179   1.981       .  S
Zn176       O181   2.027       .  S
Zn176       O183   2.084       .  S
Zn176       O187   2.025       .  S
Zn177       O179   1.980       .  S
Zn177       O182   2.087       .  S
Zn177       O185   2.029       .  S
Zn177       O188   2.031       .  S
Zn178       O179   2.009       .  S
Zn178       O186   2.035       .  S
Zn178       O189   2.032       .  S
Zn178       O190   2.103       .  S
O180        C192   1.258       .  A
O181        C193   1.276       .  A
O182        C194   1.274       .  A
O183        C192   1.273       .  A
O184        C194   1.257       .  A
O185        C193   1.277       .  A
O186        C195   1.277       .  A
O187        C196   1.276       .  A
O188        C195   1.277       .  A
O189        C196   1.277       .  A
O190        C197   1.271       .  A
O191        C197   1.258       .  A
C192        C343   1.458       .  S
C193       C1272   1.436       .  S
C194        C378   1.459       .  S
C195       C1216   1.439       .  S
C196       C1174   1.437       .  S
C197        C551   1.469       .  S
Zn198       O202   1.972       .  S
Zn198       O203   2.057       .  S
Zn198       O207   2.056       .  S
Zn198       O214   2.054       .  S
Zn199       O202   1.962       .  S
Zn199       O204   2.020       .  S
Zn199       O206   1.993       .  S
Zn199       O210   2.015       .  S
Zn200       O202   1.963       .  S
Zn200       O205   1.992       .  S
Zn200       O208   2.020       .  S
Zn200       O211   2.017       .  S
Zn201       O202   1.953       .  S
Zn201       O209   2.012       .  S
Zn201       O212   2.017       .  S
Zn201       O213   1.985       .  S
O203        C215   1.278       .  A
O204        C216   1.273       .  A
O205        C217   1.270       .  A
O206        C215   1.270       .  A
O207        C217   1.277       .  A
O208        C216   1.273       .  A
O209        C218   1.271       .  A
O210        C219   1.270       .  A
O211        C218   1.270       .  A
O212        C219   1.271       .  A
O213        C220   1.270       .  A
O214        C220   1.278       .  A
C215       C1118   1.438       .  S
C216        C528   1.471       .  S
C217       C1200   1.438       .  S
C218        C413   1.457       .  S
C219        C325   1.457       .  S
C220       C1230   1.435       .  S
C221        N222   1.354       .  A
C221        N226   1.360       .  A
C221       C1088   1.439       .  S
N222        C223   1.354   1_554  A
C223        N224   1.358       .  A
C223       C1102   1.435       .  S
N224        C225   1.360   1_556  A
C225        N226   1.362       .  A
C227        N228   1.354   1_554  A
C227        N232   1.358       .  A
C227       C1074   1.437       .  S
N228        C229   1.354       .  A
C229        N230   1.361       .  A
C229       C1060   1.441       .  S
N230        C231   1.364       .  A
C231        N232   1.361   1_556  A
C233        N234   1.360       .  A
C233        N238   1.355       .  A
C233       C1034   1.439       .  S
N234        C235   1.362       .  A
C235        N236   1.361   1_545  A
N236        C237   1.359       .  A
C237        N238   1.355   1_565  A
C237       C1046   1.438       .  S
C239        N240   1.354   1_554  A
C239        N244   1.360       .  A
C239       C1006   1.439       .  S
N240        C241   1.354   1_565  A
C241        N242   1.360       .  A
C241       C1020   1.439       .  S
N242        C243   1.363   1_545  A
C243        N244   1.362   1_556  A
C245        N246   1.353   1_544  A
C245        N250   1.360       .  A
C245        C978   1.438       .  S
N246        C247   1.354       .  A
C247        N248   1.361       .  A
C247        C990   1.439       .  S
N248        C249   1.363       .  A
C249        N250   1.363   1_566  A
Zn251       O255   1.961       .  S
Zn251       O256   1.985       .  S
Zn251       O260   2.017       .  S
Zn251       O267   2.017       .  S
Zn252       O255   1.975       .  S
Zn252       O257   2.067       .  S
Zn252       O259   2.070       .  S
Zn252       O263   2.064       .  S
Zn253       O255   1.953       .  S
Zn253       O258   2.007       .  S
Zn253       O261   1.985       .  S
Zn253       O264   2.006       .  S
Zn254       O255   1.955       .  S
Zn254       O262   2.005       .  S
Zn254       O265   1.987       .  S
Zn254       O266   1.992       .  S
O256        C268   1.269       .  A
O257        C269   1.279       .  A
O258        C270   1.271       .  A
O259        C268   1.279       .  A
O260        C270   1.272       .  A
O261        C269   1.270       .  A
O262        C271   1.269       .  A
O263        C272   1.279       .  A
O264        C271   1.271       .  A
O265        C272   1.270       .  A
O266        C273   1.269       .  A
O267        C273   1.271       .  A
C268       C1062   1.440       .  S
C269        C992   1.438       .  S
C271        C580   1.466       .  S
C272        C962   1.438       .  S
C273        C475   1.456       .  S
C274        N275   1.360       .  A
C274        N279   1.354   1_565  A
C274        C964   1.438       .  S
N275        C276   1.362   1_565  A
C276        N277   1.361       .  A
N277        C278   1.358       .  A
C278        N279   1.354       .  A
C278        C950   1.435       .  S
Zn280       O284   1.960       .  S
Zn280       O285   2.012       .  S
Zn280       O289   2.024       .  S
Zn280       O296   1.993       .  S
Zn281       O284   1.956       .  S
Zn281       O286   2.018       .  S
Zn281       O288   2.022       .  S
Zn281       O292   1.985       .  S
Zn282       O284   1.957       .  S
Zn282       O287   2.018       .  S
Zn282       O290   2.003       .  S
Zn282       O293   1.988       .  S
Zn283       O284   1.972       .  S
Zn283       O291   2.048       .  S
Zn283       O294   2.050       .  S
Zn283       O295   2.053       .  S
O285        C297   1.270       .  A
O286        C298   1.271       .  A
O287        C299   1.272       .  A
O288        C297   1.272       .  A
O289        C299   1.273       .  A
O290        C298   1.269       .  A
O291        C300   1.276       .  A
O292        C301   1.270       .  A
O293        C300   1.269       .  A
O294        C301   1.277       .  A
O295        C302   1.277       .  A
O296        C302   1.270       .  A
C297        C600   1.458       .  S
C298        C448   1.454       .  S
C300       C1104   1.435       .  S
C301        C948   1.433       .  S
C302       C1018   1.437       .  S
Zn303       O307   1.865       .  S
Zn303       O308   1.926       .  S
Zn303       O312   1.869       .  S
Zn303       O319   1.922       .  S
Zn304       O307   1.979       .  S
Zn304       O309   2.028       .  S
Zn304       O311   2.085       .  S
Zn304       O315   2.032       .  S
Zn305       O307   2.014       .  S
Zn305       O310   2.111       .  S
Zn305       O313   2.032       .  S
Zn305       O316   2.032       .  S
Zn306       O307   1.980       .  S
Zn306       O314   2.029       .  S
Zn306       O317   2.031       .  S
Zn306       O318   2.082       .  S
O308        C320   1.258       .  A
O309        C321   1.277       .  A
O310        C322   1.271       .  A
O311        C320   1.274       .  A
O312        C322   1.257       .  A
O313        C321   1.277       .  A
O314        C323   1.277       .  A
O315        C324   1.277       .  A
O316        C323   1.277       .  A
O317        C324   1.276       .  A
O318        C325   1.274       .  A
O319        C325   1.258       .  A
C320        C525   1.460       .  S
C321       C1048   1.437       .  S
C322        C415   1.471       .  S
C323       C1076   1.437       .  S
C324       C1004   1.439       .  S
Zn326       O330   1.961       .  S
Zn326       O331   2.010       .  S
Zn326       O335   2.026       .  S
Zn326       O342   1.994       .  S
Zn327       O330   1.958       .  S
Zn327       O332   2.021       .  S
Zn327       O334   2.025       .  S
Zn327       O338   1.993       .  S
Zn328       O330   1.961       .  S
Zn328       O333   2.021       .  S
Zn328       O336   2.010       .  S
Zn328       O339   1.989       .  S
Zn329       O330   1.974       .  S
Zn329       O337   2.058       .  S
Zn329       O340   2.057       .  S
Zn329       O341   2.056       .  S
O331        C343   1.270       .  A
O332        C344   1.272       .  A
O333        C345   1.273       .  A
O334        C343   1.272       .  A
O335        C345   1.273       .  A
O336        C344   1.270       .  A
O337        C346   1.277       .  A
O338        C347   1.271       .  A
O339        C346   1.269       .  A
O340        C347   1.278       .  A
O341        C348   1.278       .  A
O342        C348   1.270       .  A
C344        C547   1.457       .  S
C345        C379   1.474       .  S
C346       C1032   1.438       .  S
C347        C976   1.437       .  S
C348       C1090   1.438       .  S
C349        N350   1.357       .  A
C349        N354   1.355       .  A
C349        C920   1.436       .  S
N350        C351   1.360       .  A
C351        N352   1.363       .  A
N352        C353   1.362       .  A
C353        N354   1.355       .  A
C353        C934   1.442       .  S
C355        N356   1.360       .  A
C355        N360   1.354       .  A
C355        C892   1.438       .  S
N356        C357   1.363       .  A
C357        N358   1.363       .  A
N358        C359   1.359       .  A
C359        N360   1.354       .  A
C359        C906   1.439       .  S
Zn361       O365   1.957       .  S
Zn361       O366   2.022       .  S
Zn361       O370   2.019       .  S
Zn361       O377   1.993       .  S
Zn362       O365   1.965       .  S
Zn362       O367   2.027       .  S
Zn362       O369   2.018       .  S
Zn362       O373   1.997       .  S
Zn363       O365   1.963       .  S
Zn363       O368   2.010       .  S
Zn363       O371   2.022       .  S
Zn363       O374   1.992       .  S
Zn364       O365   1.973       .  S
Zn364       O372   2.060       .  S
Zn364       O375   2.061       .  S
Zn364       O376   2.059       .  S
O366        C378   1.272       .  A
O367        C379   1.273       .  A
O368        C380   1.270       .  A
O369        C378   1.271       .  A
O370        C380   1.272       .  A
O371        C379   1.273       .  A
O372        C381   1.278       .  A
O373        C382   1.271       .  A
O374        C381   1.270       .  A
O375        C382   1.278       .  A
O376        C383   1.278       .  A
O377        C383   1.271       .  A
C380        C548   1.456       .  S
C381        C880   1.439       .  S
C382        C936   1.440       .  S
C383        C908   1.438       .  S
C384        N385   1.355       .  A
C384        N389   1.360       .  A
C384        C878   1.439       .  S
N385        C386   1.355       .  A
C386        N387   1.359       .  A
C386        C866   1.438       .  S
N387        C388   1.361       .  A
C388        N389   1.362       .  A
C390        N391   1.359       .  A
C390        N395   1.355       .  A
C390        C838   1.438       .  S
N391        C392   1.361       .  A
C392        N393   1.359       .  A
N393        C394   1.357       .  A
C394        N395   1.355       .  A
C394        C852   1.435       .  S
Zn396       O400   1.863       .  S
Zn396       O401   1.920       .  S
Zn396       O405   1.867       .  S
Zn396       O412   1.922       .  S
Zn397       O400   1.978       .  S
Zn397       O402   2.029       .  S
Zn397       O404   2.081       .  S
Zn397       O408   2.029       .  S
Zn398       O400   2.012       .  S
Zn398       O403   2.111       .  S
Zn398       O406   2.029       .  S
Zn398       O409   2.026       .  S
Zn399       O400   1.978       .  S
Zn399       O407   2.024       .  S
Zn399       O410   2.031       .  S
Zn399       O411   2.085       .  S
O401        C413   1.258       .  A
O402        C414   1.277       .  A
O403        C415   1.271       .  A
O404        C413   1.274       .  A
O405        C415   1.256       .  A
O406        C414   1.277       .  A
O407        C416   1.276       .  A
O408        C417   1.276       .  A
O409        C416   1.277       .  A
O410        C417   1.276       .  A
O411        C418   1.274       .  A
O412        C418   1.258       .  A
C414        C922   1.437       .  S
C416        C850   1.434       .  S
C417        C822   1.438       .  S
C418        C527   1.458       .  S
C419        N420   1.360       .  A
C419        N424   1.354       .  A
C419        C824   1.439       .  S
N420        C421   1.364       .  A
C421        N422   1.363       .  A
N422        C423   1.359       .  A
C423        N424   1.354       .  A
C423        C808   1.438       .  S
C425        N426   1.359       .  A
C425        N430   1.355       .  A
C425        C780   1.437       .  S
N426        C427   1.361       .  A
C427        N428   1.360       .  A
N428        C429   1.358       .  A
C429        N430   1.355       .  A
C429        C794   1.436       .  S
Zn431       O435   1.978       .  S
Zn431       O436   2.077       .  S
Zn431       O440   2.022       .  S
Zn431       O447   2.023       .  S
Zn432       O435   1.863       .  S
Zn432       O437   1.918       .  S
Zn432       O439   1.918       .  S
Zn432       O443   1.869       .  S
Zn433       O435   1.981       .  S
Zn433       O438   2.031       .  S
Zn433       O441   2.088       .  S
Zn433       O444   2.031       .  S
Zn434       O435   2.009       .  S
Zn434       O442   2.034       .  S
Zn434       O445   2.107       .  S
Zn434       O446   2.035       .  S
O436        C448   1.273       .  A
O437        C449   1.257       .  A
O438        C450   1.277       .  A
O439        C448   1.257       .  A
O440        C450   1.276       .  A
O441        C449   1.274       .  A
O442        C451   1.278       .  A
O443        C452   1.257       .  A
O444        C451   1.277       .  A
O445        C452   1.271       .  A
O446        C453   1.277       .  A
O447        C453   1.276       .  A
C450        C796   1.436       .  S
C451        C810   1.439       .  S
C452        C601   1.469       .  S
C453        C864   1.438       .  S
Zn454       O458   1.931       .  S
Zn454       O459   2.064       .  S
Zn454       O463   2.019       .  S
Zn454       O470   2.038       .  S
Zn455       O458   1.851       .  S
Zn455       O460   1.978       .  S
Zn455       O462   1.976       .  S
Zn455       O466   1.972       .  S
Zn456       O458   1.931       .  S
Zn456       O461   2.039       .  S
Zn456       O464   2.063       .  S
Zn456       O467   2.019       .  S
Zn457       O458   1.932       .  S
Zn457       O465   2.040       .  S
Zn457       O468   2.058       .  S
Zn457       O469   2.021       .  S
O459        C471   1.274       .  A
O460        C472   1.267       .  A
O461        C473   1.279       .  A
O462        C471   1.266       .  A
O463        C473   1.277       .  A
O464        C472   1.274       .  A
O465        C474   1.279       .  A
O466        C475   1.266       .  A
O467        C474   1.276       .  A
O468        C475   1.274       .  A
O469        C476   1.277       .  A
O470        C476   1.278       .  A
C472        C581   1.461       .  S
C473        C894   1.437       .  S
C474        C836   1.438       .  S
C476        C782   1.437       .  S
C477        N478   1.353       .  A
C477        N482   1.359       .  A
C477        C754   1.436       .  S
N478        C479   1.353   1_545  A
C479        N480   1.359       .  A
C479        C768   1.436       .  S
N480        C481   1.362   1_565  A
C481        N482   1.362       .  A
C483        N484   1.354   1_565  A
C483        N488   1.359       .  A
C483        C726   1.437       .  S
N484        C485   1.354       .  A
C485        N486   1.360       .  A
C485        C738   1.439       .  S
N486        C487   1.362       .  A
C487        N488   1.361   1_545  A
C489        N490   1.361       .  A
C489        N494   1.354   1_455  A
C489        C698   1.440       .  S
N490        C491   1.365   1_455  A
C491        N492   1.364       .  A
N492        C493   1.360       .  A
C493        N494   1.353       .  A
C493        C712   1.439       .  S
C495        N496   1.360       .  A
C495        N500   1.354   1_645  A
C495        C668   1.440       .  S
N496        C497   1.363   1_645  A
C497        N498   1.362       .  A
N498        C499   1.360       .  A
C499        N500   1.354       .  A
C499        C682   1.438       .  S
C501        N502   1.359       .  A
C501        N506   1.354       .  A
C501        C654   1.436       .  S
N502        C503   1.362       .  A
C503        N504   1.363   1_655  A
N504        C505   1.359       .  A
C505        N506   1.354   1_455  A
C505        C640   1.437       .  S
Zn507       O511   1.973       .  S
Zn507       O512   2.054       .  S
Zn507       O516   2.054       .  S
Zn507       O523   2.051       .  S
Zn508       O511   1.962       .  S
Zn508       O513   2.018       .  S
Zn508       O515   1.995       .  S
Zn508       O519   2.020       .  S
Zn509       O511   1.955       .  S
Zn509       O514   1.991       .  S
Zn509       O517   2.021       .  S
Zn509       O520   2.021       .  S
Zn510       O511   1.961       .  S
Zn510       O518   2.013       .  S
Zn510       O521   2.017       .  S
Zn510       O522   1.989       .  S
O512        C524   1.277       .  A
O513        C525   1.271       .  A
O514        C526   1.271       .  A
O515        C524   1.270       .  A
O516        C526   1.278       .  A
O517        C525   1.272       .  A
O518        C527   1.270       .  A
O519        C528   1.273       .  A
O520        C527   1.272       .  A
O521        C528   1.272       .  A
O522        C529   1.270       .  A
O523        C529   1.276       .  A
C524        C684   1.438       .  S
C526        C766   1.436       .  S
C529        C642   1.436       .  S
Zn530       O534   1.981       .  S
Zn530       O535   2.084       .  S
Zn530       O539   2.035       .  S
Zn530       O546   2.032       .  S
Zn531       O534   1.866       .  S
Zn531       O536   1.918       .  S
Zn531       O538   1.919       .  S
Zn531       O542   1.867       .  S
Zn532       O534   1.981       .  S
Zn532       O537   2.029       .  S
Zn532       O540   2.081       .  S
Zn532       O543   2.025       .  S
Zn533       O534   2.011       .  S
Zn533       O541   2.039       .  S
Zn533       O544   2.107       .  S
Zn533       O545   2.040       .  S
O535        C547   1.274       .  A
O536        C548   1.257       .  A
O537        C549   1.277       .  A
O538        C547   1.257       .  A
O539        C549   1.277       .  A
O540        C548   1.273       .  A
O541        C550   1.278       .  A
O542        C551   1.256       .  A
O543        C550   1.276       .  A
O544        C551   1.271       .  A
O545        C552   1.278       .  A
O546        C552   1.277       .  A
C549        C740   1.439       .  S
C550        C710   1.439       .  S
C552        C670   1.441       .  S
C553        N554   1.354   1_545  A
C553        N558   1.360       .  A
C553        C614   1.438       .  S
N554        C555   1.354   1_455  A
C555        N556   1.357       .  A
C555        C628   1.434       .  S
N556        C557   1.360   1_655  A
C557        N558   1.362   1_565  A
Zn559       O563   1.950       .  S
Zn559       O564   2.006       .  S
Zn559       O568   1.992       .  S
Zn559       O575   1.992       .  S
Zn560       O563   1.948       .  S
Zn560       O565   1.987       .  S
Zn560       O567   2.005       .  S
Zn560       O571   1.998       .  S
Zn561       O563   1.967       .  S
Zn561       O566   2.047       .  S
Zn561       O569   2.050       .  S
Zn561       O572   2.049       .  S
Zn562       O563   1.962       .  S
Zn562       O570   1.996       .  S
Zn562       O573   2.021       .  S
Zn562       O574   2.032       .  S
O564        C576   1.270       .  A
O565        C577   1.269       .  A
O566        C578   1.277       .  A
O567        C576   1.271       .  A
O568        C578   1.271       .  A
O569        C577   1.277       .  A
O570        C579   1.271       .  A
O571        C580   1.270       .  A
O572        C579   1.277       .  A
O573        C580   1.273       .  A
O574        C581   1.272       .  A
O575        C581   1.269       .  A
C577        C626   1.435       .  S
C578        C656   1.434       .  S
C579        C724   1.436       .  S
Zn582       O586   2.011       .  S
Zn582       O587   2.031       .  S
Zn582       O591   2.106       .  S
Zn582       O598   2.032       .  S
Zn583       O586   1.979       .  S
Zn583       O588   2.083       .  S
Zn583       O590   2.020       .  S
Zn583       O594   2.028       .  S
Zn584       O586   1.865       .  S
Zn584       O589   1.869       .  S
Zn584       O592   1.926       .  S
Zn584       O595   1.921       .  S
Zn585       O586   1.979       .  S
Zn585       O593   2.085       .  S
Zn585       O596   2.032       .  S
Zn585       O597   2.032       .  S
O587        C599   1.277       .  A
O588        C600   1.274       .  A
O589        C601   1.257       .  A
O590        C599   1.276       .  A
O591        C601   1.271       .  A
O592        C600   1.258       .  A
O593        C602   1.274       .  A
O594        C603   1.276       .  A
O595        C602   1.258       .  A
O596        C603   1.277       .  A
O597        C604   1.277       .  A
O598        C604   1.277       .  A
C599        C752   1.435       .  S
C603        C612   1.438       .  S
C604        C696   1.439       .  S
C605        C613   1.443       .  S
C605        C606   1.403       .  A
C605        C610   1.401       .  A
C606        C607   1.401       .  A
C606        H615   1.084       .  S
C607        C608   1.401       .  A
C607        H616   1.083       .  S
C608        C611   1.443       .  S
C608        C609   1.402       .  A
C609        C610   1.400       .  A
C609        H617   1.084       .  S
C610        H618   1.083       .  S
C611        C612   1.208       .  T
C613        C614   1.208       .  T
C619        C627   1.439       .  S
C619        C620   1.402       .  A
C619        C624   1.400       .  A
C620        C621   1.399       .  A
C620        H629   1.084       .  S
C621        C622   1.400       .  A
C621        H630   1.083       .  S
C622        C625   1.440       .  S
C622        C623   1.402       .  A
C623        C624   1.399       .  A
C623        H631   1.084       .  S
C624        H632   1.083       .  S
C625        C626   1.206       .  T
C627        C628   1.205       .  T
C633        C641   1.441       .  S
C633        C634   1.403       .  A
C633        C638   1.401       .  A
C634        C635   1.399       .  A
C634        H643   1.084       .  S
C635        C636   1.401       .  A
C635        H644   1.083       .  S
C636        C639   1.442       .  S
C636        C637   1.403       .  A
C637        C638   1.400       .  A
C637        H645   1.084       .  S
C638        H646   1.083       .  S
C639        C640   1.207       .  T
C641        C642   1.207       .  T
C647        C655   1.440       .  S
C647        C648   1.401       .  A
C647        C652   1.402       .  A
C648        C649   1.399       .  A
C648        H657   1.084       .  S
C649        C650   1.402       .  A
C649        H658   1.083       .  S
C650        C653   1.441       .  S
C650        C651   1.401       .  A
C651        C652   1.399       .  A
C651        H659   1.084       .  S
C652        H660   1.083       .  S
C653        C654   1.206       .  T
C655        C656   1.206       .  T
C661        C669   1.446       .  S
C661        C662   1.402       .  A
C661        C666   1.403       .  A
C662        C663   1.401       .  A
C662        H671   1.084       .  S
C663        C664   1.403       .  A
C663        H672   1.083       .  S
C664        C667   1.445       .  S
C664        C665   1.402       .  A
C665        C666   1.401       .  A
C665        H673   1.084       .  S
C666        H674   1.083       .  S
C667        C668   1.209       .  T
C669        C670   1.210       .  T
C675        C683   1.443       .  S
C675        C676   1.401       .  A
C675        C680   1.403       .  A
C676        C677   1.400       .  A
C676        H685   1.084       .  S
C677        C678   1.402       .  A
C677        H686   1.083       .  S
C678        C681   1.443       .  S
C678        C679   1.402       .  A
C679        C680   1.401       .  A
C679        H687   1.084       .  S
C680        H688   1.083       .  S
C681        C682   1.208       .  T
C683        C684   1.208       .  T
C689        C697   1.445       .  S
C689        C690   1.402       .  A
C689        C694   1.402       .  A
C690        C691   1.401       .  A
C690        H699   1.083       .  S
C691        C692   1.402       .  A
C691        H700   1.084       .  S
C692        C695   1.444       .  S
C692        C693   1.402       .  A
C693        C694   1.401       .  A
C693        H701   1.083       .  S
C694        H702   1.084       .  S
C695        C696   1.209       .  T
C697        C698   1.209       .  T
C703        C711   1.444       .  S
C703        C704   1.402       .  A
C703        C708   1.402       .  A
C704        C705   1.400       .  A
C704        H713   1.083       .  S
C705        C706   1.402       .  A
C705        H714   1.084       .  S
C706        C709   1.444       .  S
C706        C707   1.403       .  A
C707        C708   1.401       .  A
C707        H715   1.083       .  S
C708        H716   1.084       .  S
C709        C710   1.208       .  T
C711        C712   1.208       .  T
C717        C725   1.442       .  S
C717        C718   1.403       .  A
C717        C722   1.400       .  A
C718        C719   1.401       .  A
C718        H727   1.084       .  S
C719        C720   1.401       .  A
C719        H728   1.083       .  S
C720        C723   1.442       .  S
C720        C721   1.402       .  A
C721        C722   1.399       .  A
C721        H729   1.084       .  S
C722        H730   1.083       .  S
C723        C724   1.207       .  T
C725        C726   1.207       .  T
C731        C739   1.444       .  S
C731        C732   1.402       .  A
C731        C736   1.403       .  A
C732        C733   1.401       .  A
C732        H741   1.084       .  S
C733        C734   1.402       .  A
C733        H742   1.083       .  S
C734        C737   1.444       .  S
C734        C735   1.402       .  A
C735        C736   1.401       .  A
C735        H743   1.084       .  S
C736        H744   1.083       .  S
C737        C738   1.208       .  T
C739        C740   1.209       .  T
C745        C753   1.441       .  S
C745        C746   1.402       .  A
C745        C750   1.401       .  A
C746        C747   1.399       .  A
C746        H755   1.083       .  S
C747        C748   1.401       .  A
C747        H756   1.084       .  S
C748        C751   1.441       .  S
C748        C749   1.402       .  A
C749        C750   1.400       .  A
C749        H757   1.083       .  S
C750        H758   1.084       .  S
C751        C752   1.206       .  T
C753        C754   1.207       .  T
C759        C767   1.441       .  S
C759        C760   1.402       .  A
C759        C764   1.401       .  A
C760        C761   1.400       .  A
C760        H769   1.084       .  S
C761        C762   1.402       .  A
C761        H770   1.083       .  S
C762        C765   1.441       .  S
C762        C763   1.401       .  A
C763        C764   1.399       .  A
C763        H771   1.084       .  S
C764        H772   1.083       .  S
C765        C766   1.207       .  T
C767        C768   1.207       .  T
C773        C781   1.442       .  S
C773        C774   1.403       .  A
C773        C778   1.401       .  A
C774        C775   1.400       .  A
C774        H783   1.084       .  S
C775        C776   1.401       .  A
C775        H784   1.083       .  S
C776        C779   1.442       .  S
C776        C777   1.403       .  A
C777        C778   1.400       .  A
C777        H785   1.084       .  S
C778        H786   1.083       .  S
C779        C780   1.207       .  T
C781        C782   1.207       .  T
C787        C795   1.441       .  S
C787        C788   1.401       .  A
C787        C792   1.402       .  A
C788        C789   1.399       .  A
C788        H797   1.083       .  S
C789        C790   1.401       .  A
C789        H798   1.084       .  S
C790        C793   1.441       .  S
C790        C791   1.402       .  A
C791        C792   1.400       .  A
C791        H799   1.083       .  S
C792        H800   1.084       .  S
C793        C794   1.206       .  T
C795        C796   1.207       .  T
C801        C809   1.444       .  S
C801        C802   1.401       .  A
C801        C806   1.403       .  A
C802        C803   1.400       .  A
C802        H811   1.083       .  S
C803        C804   1.403       .  A
C803        H812   1.083       .  S
C804        C807   1.443       .  S
C804        C805   1.401       .  A
C805        C806   1.400       .  A
C805        H813   1.083       .  S
C806        H814   1.083       .  S
C807        C808   1.208       .  T
C809        C810   1.208       .  T
C815        C823   1.444       .  S
C815        C816   1.402       .  A
C815        C820   1.402       .  A
C816        C817   1.400       .  A
C816        H825   1.084       .  S
C817        C818   1.402       .  A
C817        H826   1.083       .  S
C818        C821   1.444       .  S
C818        C819   1.402       .  A
C819        C820   1.401       .  A
C819        H827   1.084       .  S
C820        H828   1.083       .  S
C821        C822   1.208       .  T
C823        C824   1.208       .  T
C829        C837   1.443       .  S
C829        C830   1.401       .  A
C829        C834   1.403       .  A
C830        C831   1.400       .  A
C830        H839   1.083       .  S
C831        C832   1.403       .  A
C831        H840   1.084       .  S
C832        C835   1.443       .  S
C832        C833   1.401       .  A
C833        C834   1.400       .  A
C833        H841   1.083       .  S
C834        H842   1.084       .  S
C835        C836   1.208       .  T
C837        C838   1.207       .  T
C843        C851   1.440       .  S
C843        C844   1.401       .  A
C843        C848   1.402       .  A
C844        C845   1.399       .  A
C844        H853   1.083       .  S
C845        C846   1.402       .  A
C845        H854   1.083       .  S
C846        C849   1.440       .  S
C846        C847   1.401       .  A
C847        C848   1.399       .  A
C847        H855   1.084       .  S
C848        H856   1.083       .  S
C849        C850   1.206       .  T
C851        C852   1.206       .  T
C857        C865   1.443       .  S
C857        C858   1.402       .  A
C857        C862   1.401       .  A
C858        C859   1.400       .  A
C858        H867   1.083       .  S
C859        C860   1.401       .  A
C859        H868   1.083       .  S
C860        C863   1.443       .  S
C860        C861   1.403       .  A
C861        C862   1.400       .  A
C861        H869   1.083       .  S
C862        H870   1.084       .  S
C863        C864   1.208       .  T
C865        C866   1.208       .  T
C871        C879   1.444       .  S
C871        C872   1.402       .  A
C871        C876   1.402       .  A
C872        C873   1.401       .  A
C872        H881   1.083       .  S
C873        C874   1.403       .  A
C873        H882   1.084       .  S
C874        C877   1.444       .  S
C874        C875   1.401       .  A
C875        C876   1.400       .  A
C875        H883   1.083       .  S
C876        H884   1.084       .  S
C877        C878   1.208       .  T
C879        C880   1.209       .  T
C885        C893   1.442       .  S
C885        C886   1.402       .  A
C885        C890   1.401       .  A
C886        C887   1.400       .  A
C886        H895   1.083       .  S
C887        C888   1.401       .  A
C887        H896   1.084       .  S
C888        C891   1.443       .  S
C888        C889   1.403       .  A
C889        C890   1.400       .  A
C889        H897   1.083       .  S
C890        H898   1.084       .  S
C891        C892   1.208       .  T
C893        C894   1.207       .  T
C899        C907   1.444       .  S
C899        C900   1.402       .  A
C899        C904   1.402       .  A
C900        C901   1.400       .  A
C900        H909   1.083       .  S
C901        C902   1.401       .  A
C901        H910   1.084       .  S
C902        C905   1.443       .  S
C902        C903   1.403       .  A
C903        C904   1.401       .  A
C903        H911   1.083       .  S
C904        H912   1.084       .  S
C905        C906   1.208       .  T
C907        C908   1.208       .  T
C913        C921   1.442       .  S
C913        C914   1.400       .  A
C913        C918   1.403       .  A
C914        C915   1.399       .  A
C914        H923   1.084       .  S
C915        C916   1.402       .  A
C915        H924   1.083       .  S
C916        C919   1.441       .  S
C916        C917   1.401       .  A
C917        C918   1.400       .  A
C917        H925   1.084       .  S
C918        H926   1.083       .  S
C919        C920   1.206       .  T
C921        C922   1.207       .  T
C927        C935   1.446       .  S
C927        C928   1.403       .  A
C927        C932   1.402       .  A
C928        C929   1.401       .  A
C928        H937   1.083       .  S
C929        C930   1.401       .  A
C929        H938   1.083       .  S
C930        C933   1.446       .  S
C930        C931   1.403       .  A
C931        C932   1.402       .  A
C931        H939   1.083       .  S
C932        H940   1.083       .  S
C933        C934   1.210       .  T
C935        C936   1.209       .  T
C941        C949   1.440       .  S
C941        C942   1.403       .  A
C941        C946   1.400       .  A
C942        C943   1.400       .  A
C942        H951   1.083       .  S
C943        C944   1.401       .  A
C943        H952   1.084       .  S
C944        C947   1.440       .  S
C944        C945   1.402       .  A
C945        C946   1.398       .  A
C945        H953   1.083       .  S
C946        H954   1.084       .  S
C947        C948   1.205       .  T
C949        C950   1.206       .  T
C955        C963   1.443       .  S
C955        C956   1.403       .  A
C955        C960   1.401       .  A
C956        C957   1.401       .  A
C956        H965   1.083       .  S
C957        C958   1.401       .  A
C957        H966   1.084       .  S
C958        C961   1.444       .  S
C958        C959   1.403       .  A
C959        C960   1.400       .  A
C959        H967   1.083       .  S
C960        H968   1.084       .  S
C961        C962   1.208       .  T
C963        C964   1.208       .  T
C969        C977   1.443       .  S
C969        C970   1.402       .  A
C969        C974   1.402       .  A
C970        C971   1.400       .  A
C970        H979   1.084       .  S
C971        C972   1.402       .  A
C971        H980   1.083       .  S
C972        C975   1.443       .  S
C972        C973   1.402       .  A
C973        C974   1.400       .  A
C973        H981   1.084       .  S
C974        H982   1.083       .  S
C975        C976   1.208       .  T
C977        C978   1.208       .  T
C983        C991   1.445       .  S
C983        C984   1.403       .  A
C983        C988   1.402       .  A
C984        C985   1.401       .  A
C984        H993   1.083       .  S
C985        C986   1.402       .  A
C985        H994   1.084       .  S
C986        C989   1.445       .  S
C986        C987   1.402       .  A
C987        C988   1.401       .  A
C987        H995   1.083       .  S
C988        H996   1.084       .  S
C989        C990   1.209       .  T
C991        C992   1.209       .  T
C997       C1005   1.444       .  S
C997        C998   1.402       .  A
C997       C1002   1.402       .  A
C998        C999   1.401       .  A
C998       H1007   1.083       .  S
C999       C1000   1.402       .  A
C999       H1008   1.084       .  S
C1000      C1003   1.444       .  S
C1000      C1001   1.402       .  A
C1001      C1002   1.401       .  A
C1001      H1009   1.083       .  S
C1002      H1010   1.084       .  S
C1003      C1004   1.209       .  T
C1005      C1006   1.208       .  T
C1011      C1019   1.444       .  S
C1011      C1012   1.402       .  A
C1011      C1016   1.402       .  A
C1012      C1013   1.400       .  A
C1012      H1021   1.084       .  S
C1013      C1014   1.402       .  A
C1013      H1022   1.083       .  S
C1014      C1017   1.443       .  S
C1014      C1015   1.402       .  A
C1015      C1016   1.400       .  A
C1015      H1023   1.084       .  S
C1016      H1024   1.083       .  S
C1017      C1018   1.207       .  T
C1019      C1020   1.208       .  T
C1025      C1033   1.443       .  S
C1025      C1026   1.402       .  A
C1025      C1030   1.402       .  A
C1026      C1027   1.400       .  A
C1026      H1035   1.083       .  S
C1027      C1028   1.402       .  A
C1027      H1036   1.084       .  S
C1028      C1031   1.444       .  S
C1028      C1029   1.402       .  A
C1029      C1030   1.401       .  A
C1029      H1037   1.083       .  S
C1030      H1038   1.084       .  S
C1031      C1032   1.208       .  T
C1033      C1034   1.208       .  T
C1039      C1047   1.443       .  S
C1039      C1040   1.402       .  A
C1039      C1044   1.402       .  A
C1040      C1041   1.400       .  A
C1040      H1049   1.084       .  S
C1041      C1042   1.402       .  A
C1041      H1050   1.083       .  S
C1042      C1045   1.442       .  S
C1042      C1043   1.402       .  A
C1043      C1044   1.400       .  A
C1043      H1051   1.084       .  S
C1044      H1052   1.083       .  S
C1045      C1046   1.207       .  T
C1047      C1048   1.207       .  T
C1053      C1061   1.446       .  S
C1053      C1054   1.403       .  A
C1053      C1058   1.401       .  A
C1054      C1055   1.402       .  A
C1054      H1063   1.084       .  S
C1055      C1056   1.402       .  A
C1055      H1064   1.083       .  S
C1056      C1059   1.446       .  S
C1056      C1057   1.403       .  A
C1057      C1058   1.401       .  A
C1057      H1065   1.084       .  S
C1058      H1066   1.083       .  S
C1059      C1060   1.209       .  T
C1061      C1062   1.209       .  T
C1067      C1075   1.442       .  S
C1067      C1068   1.402       .  A
C1067      C1072   1.402       .  A
C1068      C1069   1.400       .  A
C1068      H1077   1.083       .  S
C1069      C1070   1.402       .  A
C1069      H1078   1.083       .  S
C1070      C1073   1.442       .  S
C1070      C1071   1.402       .  A
C1071      C1072   1.400       .  A
C1071      H1079   1.083       .  S
C1072      H1080   1.083       .  S
C1073      C1074   1.207       .  T
C1075      C1076   1.207       .  T
C1081      C1089   1.443       .  S
C1081      C1082   1.403       .  A
C1081      C1086   1.401       .  A
C1082      C1083   1.400       .  A
C1082      H1091   1.083       .  S
C1083      C1084   1.401       .  A
C1083      H1092   1.084       .  S
C1084      C1087   1.444       .  S
C1084      C1085   1.403       .  A
C1085      C1086   1.401       .  A
C1085      H1093   1.083       .  S
C1086      H1094   1.084       .  S
C1087      C1088   1.208       .  T
C1089      C1090   1.208       .  T
C1095      C1103   1.440       .  S
C1095      C1096   1.400       .  A
C1095      C1100   1.403       .  A
C1096      C1097   1.399       .  A
C1096      H1105   1.083       .  S
C1097      C1098   1.402       .  A
C1097      H1106   1.083       .  S
C1098      C1101   1.440       .  S
C1098      C1099   1.400       .  A
C1099      C1100   1.399       .  A
C1099      H1107   1.083       .  S
C1100      H1108   1.084       .  S
C1101      C1102   1.206       .  T
C1103      C1104   1.206       .  T
C1109      C1117   1.444       .  S
C1109      C1110   1.402       .  A
C1109      C1114   1.402       .  A
C1110      C1111   1.401       .  A
C1110      H1119   1.083       .  S
C1111      C1112   1.403       .  A
C1111      H1120   1.084       .  S
C1112      C1115   1.444       .  S
C1112      C1113   1.401       .  A
C1113      C1114   1.400       .  A
C1113      H1121   1.083       .  S
C1114      H1122   1.084       .  S
C1115      C1116   1.208       .  T
C1117      C1118   1.208       .  T
C1123      C1131   1.443       .  S
C1123      C1124   1.402       .  A
C1123      C1128   1.402       .  A
C1124      C1125   1.400       .  A
C1124      H1133   1.083       .  S
C1125      C1126   1.402       .  A
C1125      H1134   1.083       .  S
C1126      C1129   1.443       .  S
C1126      C1127   1.402       .  A
C1127      C1128   1.401       .  A
C1127      H1135   1.083       .  S
C1128      H1136   1.083       .  S
C1129      C1130   1.208       .  T
C1131      C1132   1.208       .  T
C1137      C1145   1.444       .  S
C1137      C1138   1.403       .  A
C1137      C1142   1.401       .  A
C1138      C1139   1.400       .  A
C1138      H1147   1.084       .  S
C1139      C1140   1.401       .  A
C1139      H1148   1.083       .  S
C1140      C1143   1.443       .  S
C1140      C1141   1.403       .  A
C1141      C1142   1.401       .  A
C1141      H1149   1.084       .  S
C1142      H1150   1.083       .  S
C1143      C1144   1.208       .  T
C1145      C1146   1.208       .  T
C1151      C1159   1.443       .  S
C1151      C1152   1.403       .  A
C1151      C1156   1.401       .  A
C1152      C1153   1.400       .  A
C1152      H1161   1.084       .  S
C1153      C1154   1.401       .  A
C1153      H1162   1.083       .  S
C1154      C1157   1.443       .  S
C1154      C1155   1.403       .  A
C1155      C1156   1.400       .  A
C1155      H1163   1.084       .  S
C1156      H1164   1.083       .  S
C1157      C1158   1.207       .  T
C1159      C1160   1.208       .  T
C1165      C1173   1.442       .  S
C1165      C1166   1.403       .  A
C1165      C1170   1.401       .  A
C1166      C1167   1.400       .  A
C1166      H1175   1.084       .  S
C1167      C1168   1.401       .  A
C1167      H1176   1.083       .  S
C1168      C1171   1.442       .  S
C1168      C1169   1.402       .  A
C1169      C1170   1.400       .  A
C1169      H1177   1.084       .  S
C1170      H1178   1.083       .  S
C1171      C1172   1.207       .  T
C1173      C1174   1.207       .  T
C1179      C1187   1.444       .  S
C1179      C1180   1.404       .  A
C1179      C1184   1.400       .  A
C1180      C1181   1.402       .  A
C1180      H1189   1.083       .  S
C1181      C1182   1.401       .  A
C1181      H1190   1.084       .  S
C1182      C1185   1.445       .  S
C1182      C1183   1.403       .  A
C1183      C1184   1.400       .  A
C1183      H1191   1.083       .  S
C1184      H1192   1.084       .  S
C1185      C1186   1.209       .  T
C1187      C1188   1.209       .  T
C1193      C1201   1.443       .  S
C1193      C1194   1.403       .  A
C1193      C1198   1.400       .  A
C1194      C1195   1.401       .  A
C1194      H1203   1.084       .  S
C1195      C1196   1.401       .  A
C1195      H1204   1.083       .  S
C1196      C1199   1.443       .  S
C1196      C1197   1.403       .  A
C1197      C1198   1.400       .  A
C1197      H1205   1.084       .  S
C1198      H1206   1.083       .  S
C1199      C1200   1.208       .  T
C1201      C1202   1.208       .  T
C1207      C1215   1.445       .  S
C1207      C1208   1.402       .  A
C1207      C1212   1.402       .  A
C1208      C1209   1.401       .  A
C1208      H1217   1.084       .  S
C1209      C1210   1.402       .  A
C1209      H1218   1.083       .  S
C1210      C1213   1.444       .  S
C1210      C1211   1.402       .  A
C1211      C1212   1.401       .  A
C1211      H1219   1.084       .  S
C1212      H1220   1.083       .  S
C1213      C1214   1.208       .  T
C1215      C1216   1.209       .  T
C1221      C1229   1.441       .  S
C1221      C1222   1.401       .  A
C1221      C1226   1.402       .  A
C1222      C1223   1.399       .  A
C1222      H1231   1.083       .  S
C1223      C1224   1.402       .  A
C1223      H1232   1.083       .  S
C1224      C1227   1.442       .  S
C1224      C1225   1.401       .  A
C1225      C1226   1.400       .  A
C1225      H1233   1.083       .  S
C1226      H1234   1.084       .  S
C1227      C1228   1.207       .  T
C1229      C1230   1.206       .  T
C1235      C1243   1.443       .  S
C1235      C1236   1.401       .  A
C1235      C1240   1.403       .  A
C1236      C1237   1.401       .  A
C1236      H1245   1.084       .  S
C1237      C1238   1.403       .  A
C1237      H1246   1.083       .  S
C1238      C1241   1.444       .  S
C1238      C1239   1.401       .  A
C1239      C1240   1.401       .  A
C1239      H1247   1.084       .  S
C1240      H1248   1.083       .  S
C1241      C1242   1.208       .  T
C1243      C1244   1.208       .  T
C1249      C1257   1.443       .  S
C1249      C1250   1.401       .  A
C1249      C1254   1.403       .  A
C1250      C1251   1.400       .  A
C1250      H1259   1.084       .  S
C1251      C1252   1.402       .  A
C1251      H1260   1.083       .  S
C1252      C1255   1.443       .  S
C1252      C1253   1.402       .  A
C1253      C1254   1.401       .  A
C1253      H1261   1.084       .  S
C1254      H1262   1.083       .  S
C1255      C1256   1.208       .  T
C1257      C1258   1.208       .  T
C1263      C1271   1.442       .  S
C1263      C1264   1.401       .  A
C1263      C1268   1.403       .  A
C1264      C1265   1.399       .  A
C1264      H1273   1.083       .  S
C1265      C1266   1.402       .  A
C1265      H1274   1.084       .  S
C1266      C1269   1.441       .  S
C1266      C1267   1.401       .  A
C1267      C1268   1.400       .  A
C1267      H1275   1.083       .  S
C1268      H1276   1.084       .  S
C1269      C1270   1.206       .  T
C1271      C1272   1.207       .  T
