geometry optimzed in LAMMPS
_audit_creation_date              2020-11-30 
_audit_creation_method            'lammps2cif' 
_symmetry_space_group_name_H-M    'P1' 
_symmetry_Int_Tables_number       1 
_symmetry_cell_setting            triclinic 
loop_ 
_symmetry_equiv_pos_as_xyz 
  x,y,z 
_cell_length_a                    62.67630796 
_cell_length_b                    62.70424512472495 
_cell_length_c                    62.80280307439906 
_cell_angle_alpha                 90.01531894319983 
_cell_angle_beta                  89.91260282308716 
_cell_angle_gamma                 90.05268061355899 
loop_ 
_atom_site_label 
_atom_site_type_symbol 
_atom_site_fract_x 
_atom_site_fract_y 
_atom_site_fract_z 
_atom_site_charge 
Zn1        Zn  0.52288104  0.47913735  0.98066923     1.49700
Zn2        Zn  0.48617687  0.51478642  0.98047124     1.49400
Zn3        Zn  0.48648728  0.47841790  0.01656602     1.49100
Zn4        Zn  0.52246327  0.51515578  0.01650386     1.49500
O5          O  0.50442358  0.49690057  0.99857337    -1.84000
O6          O  0.51691480  0.48396275  0.94952510    -0.74600
O7          O  0.45493661  0.50891344  0.98644778    -0.74400
O8          O  0.49386759  0.44719454  0.01230574    -0.74000
O9          O  0.49163682  0.50874309  0.94920218    -0.74600
O10         O  0.51845402  0.44794037  0.98682269    -0.74200
O11         O  0.45503501  0.48251922  0.01009132    -0.74800
O12         O  0.51633609  0.51011160  0.04760579    -0.74200
O13         O  0.49158942  0.54629918  0.98583246    -0.75000
O14         O  0.49079524  0.48547321  0.04772575    -0.74400
O15         O  0.51676079  0.54631271  0.01069725    -0.74800
O16         O  0.55391827  0.50959492  0.01160440    -0.74700
O17         O  0.55408431  0.48521744  0.98600299    -0.74500
C18         C  0.50431876  0.49621765  0.93940077     0.77300
C19         C  0.44503571  0.49567549  0.99829287     0.77700
C20         C  0.50684459  0.43763194  0.99991584     0.76700
C21         C  0.50318610  0.49823567  0.05755135     0.77100
C22         C  0.50403485  0.55627352  0.99843613     0.78200
C23         C  0.56399746  0.49743986  0.99881652     0.77300
Zn24       Zn  0.51635754  0.97796380  0.48338322     1.49700
Zn25       Zn  0.51578333  0.01655289  0.51704585     1.49400
Zn26       Zn  0.48073628  0.01439740  0.47990827     1.49100
Zn27       Zn  0.47936932  0.98082672  0.51855268     1.49500
O28         O  0.49804422  0.99745021  0.49970143    -1.84000
O29         O  0.54742461  0.98363286  0.48938435    -0.74600
O30         O  0.51079937  0.04739631  0.50920032    -0.74400
O31         O  0.48754007  0.00686707  0.44920065    -0.74000
O32         O  0.54701274  0.01019403  0.51277622    -0.74600
O33         O  0.51164414  0.98103659  0.45161116    -0.74200
O34         O  0.48633329  0.04598576  0.48373615    -0.74800
O35         O  0.44832987  0.98685250  0.51231843    -0.74200
O36         O  0.50957942  0.01317779  0.54850211    -0.75000
O37         O  0.44918984  0.00941510  0.48513173    -0.74400
O38         O  0.48467014  0.98804067  0.54948508    -0.74800
O39         O  0.48436122  0.94914957  0.51496658    -0.74700
O40         O  0.51065421  0.94733011  0.49126746    -0.74500
C41         C  0.55715299  0.99667817  0.50152367     0.77300
C42         C  0.49874581  0.05666105  0.49575351     0.77700
C43         C  0.49999436  0.99337681  0.44047397     0.76700
C44         C  0.43874460  0.99831738  0.49857596     0.77100
C45         C  0.49686880  0.00123496  0.55894977     0.78200
C46         C  0.49751057  0.93833426  0.50386993     0.77300
Zn47       Zn  0.01933223  0.52343036  0.51558521     1.49700
Zn48       Zn  0.01816694  0.48661041  0.48035554     1.49400
Zn49       Zn  0.98332177  0.48732313  0.51771856     1.49100
Zn50       Zn  0.98188867  0.52243376  0.48057419     1.49500
O51         O  0.00064957  0.50498059  0.49854898    -1.84000
O52         O  0.05038745  0.51833295  0.50872920    -0.74600
O53         O  0.01352507  0.45554645  0.48732499    -0.74400
O54         O  0.99001604  0.49365602  0.54852394    -0.74000
O55         O  0.04949828  0.49268983  0.48435861    -0.74600
O56         O  0.01530367  0.51840875  0.54709973    -0.74200
O57         O  0.98879706  0.45600878  0.51267753    -0.74800
O58         O  0.95086772  0.51695369  0.48778946    -0.74200
O59         O  0.01111440  0.49096982  0.44928789    -0.75000
O60         O  0.95186934  0.49274843  0.51355522    -0.74400
O61         O  0.98623468  0.51599052  0.44912267    -0.74800
O62         O  0.98733236  0.55386405  0.48557429    -0.74700
O63         O  0.01276993  0.55436514  0.51019627    -0.74500
C64         C  0.05988758  0.50562962  0.49605863     0.77300
C65         C  0.00140163  0.44584613  0.50040532     0.77700
C66         C  0.00305754  0.50620100  0.55775606     0.76700
C67         C  0.94140571  0.50502534  0.50126785     0.77100
C68         C  0.99829599  0.50297342  0.43916152     0.78200
C69         C  0.99970149  0.56403495  0.49807672     0.77300
Zn70       Zn  0.98093812  0.98287875  0.98262050     1.49700
Zn71       Zn  0.01813876  0.01757112  0.98201150     1.49400
Zn72       Zn  0.98267865  0.01967540  0.01864896     1.49100
Zn73       Zn  0.01723486  0.98210963  0.01888363     1.49500
O74         O  0.99967424  0.00051040  0.00058667    -1.84000
O75         O  0.98684606  0.98737913  0.95101705    -0.74600
O76         O  0.01420411  0.04909582  0.98693090    -0.74400
O77         O  0.95104220  0.01477584  0.01380186    -0.74000
O78         O  0.01264954  0.01163857  0.95102213    -0.74600
O79         O  0.95006223  0.98974935  0.98878180    -0.74200
O80         O  0.98964067  0.05072505  0.01238992    -0.74800
O81         O  0.01160264  0.98757892  0.05030600    -0.74200
O82         O  0.04891582  0.01101446  0.98737994    -0.75000
O83         O  0.98822512  0.01415588  0.04999627    -0.74400
O84         O  0.04879903  0.98680881  0.01316110    -0.74800
O85         O  0.01039279  0.95115990  0.01352218    -0.74700
O86         O  0.98505205  0.95144601  0.98886837    -0.74500
C87         C  0.00009029  0.99919634  0.94106395     0.77300
C88         C  0.00231953  0.05987998  0.99937015     0.77700
C89         C  0.94055853  0.00242220  0.00153533     0.76700
C90         C  0.99965477  0.00076665  0.06012867     0.77100
C91         C  0.05882399  0.99892446  0.00025092     0.78200
C92         C  0.99724557  0.94133959  0.00155337     0.77300
C93         C  0.75938961  0.48249301  0.01654276     0.03300
C94         C  0.73698269  0.48186451  0.01683786    -0.12900
C95         C  0.72504799  0.49530135  0.00357390     0.00800
C96         C  0.73569771  0.50926071  0.98971801    -0.11400
C97         C  0.75808569  0.51026832  0.98924131     0.03200
C98         C  0.76988854  0.49643850  0.00242020    -0.10800
H99         H  0.72882955  0.47113188  0.02766496     0.08800
H100        H  0.72646074  0.51970252  0.97953842     0.06400
H101        H  0.78716604  0.49681896  0.00202048     0.06200
C102        C  0.25032161  0.50943813  0.01369199     0.03300
C103        C  0.27275429  0.50908078  0.01355202    -0.12900
C104        C  0.28388912  0.49611589  0.99907923     0.00800
C105        C  0.27237231  0.48292663  0.98515698    -0.11400
C106        C  0.24998080  0.48311647  0.98510213     0.03200
C107        C  0.23905235  0.49613906  0.99966467    -0.10800
H108        H  0.28154451  0.51922400  0.02442087     0.08800
H109        H  0.28087009  0.47277267  0.97405304     0.06400
H110        H  0.22176174  0.49625885  0.99976466     0.06200
C111        C  0.98308123  0.48449562  0.24432411     0.03300
C112        C  0.98257416  0.48568316  0.26666736    -0.12900
C113        C  0.99464556  0.50105479  0.27760148     0.00800
C114        C  0.00781049  0.51493889  0.26589073    -0.11400
C115        C  0.00849047  0.51398521  0.24353954     0.03200
C116        C  0.99601010  0.49877600  0.23285977    -0.10800
H117        H  0.97287860  0.47446863  0.27556475     0.08800
H118        H  0.01751491  0.52658737  0.27417775     0.06400
H119        H  0.99618093  0.49822307  0.21561738     0.06200
C120        C  0.99018588  0.25290555  0.01101985     0.03300
C121        C  0.00218888  0.26514679  0.99662191    -0.12900
C122        C  0.01520465  0.25520884  0.98135355     0.00800
C123        C  0.01652743  0.23283961  0.98095599    -0.11400
C124        C  0.00521718  0.22049631  0.99576895     0.03200
C125        C  0.99197198  0.23059694  0.01069190    -0.10800
H126        H  0.00130247  0.28239703  0.99723742     0.08800
H127        H  0.02667775  0.22502817  0.96934802     0.06400
H128        H  0.98307612  0.22108987  0.02207077     0.06200
C129        C  0.01592944  0.49541644  0.75133846     0.03300
C130        C  0.01593996  0.49703004  0.72908938    -0.12900
C131        C  0.00175667  0.51074407  0.71857223     0.00800
C132        C  0.98738376  0.52299809  0.73071115    -0.11400
C133        C  0.98734367  0.52167013  0.75307489     0.03200
C134        C  0.00144259  0.50762395  0.76328290    -0.10800
H135        H  0.02719635  0.48763968  0.71991257     0.08800
H136        H  0.97613026  0.53343171  0.72281459     0.06400
H137        H  0.00130764  0.50638517  0.78049546     0.06200
Zn138      Zn  0.12285432  0.34520926  0.83438272     1.49700
Zn139      Zn  0.15988631  0.34266538  0.86975427     1.49400
Zn140      Zn  0.16950091  0.33145078  0.82119329     1.49100
Zn141      Zn  0.16116832  0.37958476  0.83382200     1.49500
O142        O  0.15327644  0.34984402  0.83997498    -1.84000
O143        O  0.10768557  0.33579808  0.86099317    -0.74600
O144        O  0.18147671  0.31843236  0.87164533    -0.74400
O145        O  0.15084803  0.31466368  0.80163437    -0.74000
O146        O  0.13308519  0.33365927  0.88554235    -0.74600
O147        O  0.11786150  0.32247436  0.81190727    -0.74200
O148        O  0.18692193  0.31071603  0.83758452    -0.74800
O149        O  0.18408848  0.38202499  0.81111799    -0.74200
O150        O  0.17261792  0.36822309  0.88474515    -0.75000
O151        O  0.18997859  0.34798483  0.80350183    -0.74400
O152        O  0.17296889  0.39372754  0.86012716    -0.74800
O153        O  0.13565503  0.39597691  0.82344883    -0.74700
O154        O  0.10918224  0.37230524  0.82397874    -0.74500
C155        C  0.11362208  0.33176332  0.87995710     0.77300
C156        C  0.19064960  0.30747029  0.85719344     0.77700
C157        C  0.13078944  0.31215249  0.80015413     0.76700
C158        C  0.19409292  0.36764854  0.80088550     0.77100
C159        C  0.17700932  0.38720133  0.87890041     0.78200
C160        C  0.11619137  0.39102940  0.82034504     0.77300
C161        C  0.98604045  0.74676670  0.99042937     0.03300
C162        C  0.98637355  0.76913025  0.99028763    -0.12900
C163        C  0.00030713  0.78045102  0.00358776     0.00800
C164        C  0.01357867  0.76920081  0.01761667    -0.11400
C165        C  0.01316635  0.74680103  0.01819935     0.03200
C166        C  0.99943378  0.73567280  0.00446955    -0.10800
H167        H  0.97588659  0.77776374  0.97963269     0.08800
H168        H  0.02427422  0.77787593  0.02804339     0.06400
H169        H  0.99917580  0.71839292  0.00470777     0.06200
Zn170      Zn  0.82764101  0.67768594  0.83233334     1.49700
Zn171      Zn  0.83709434  0.66416022  0.87976058     1.49400
Zn172      Zn  0.83657252  0.62858020  0.84225841     1.49100
Zn173      Zn  0.87455467  0.66311826  0.84357458     1.49500
O174        O  0.84411195  0.65817646  0.84966819    -1.84000
O175        O  0.81024571  0.69774037  0.84961070    -0.74600
O176        O  0.82614365  0.63739755  0.89425712    -0.74400
O177        O  0.81252077  0.62769984  0.82043737    -0.74000
O178        O  0.81488071  0.68804171  0.88320190    -0.74600
O179        O  0.80750554  0.66204277  0.81370764    -0.74200
O180        O  0.82640727  0.61286396  0.86870392    -0.74800
O181        O  0.88891938  0.63614495  0.83307031    -0.74200
O182        O  0.86377855  0.67364649  0.89514669    -0.75000
O183        O  0.86228303  0.61289232  0.82974019    -0.74400
O184        O  0.88919623  0.67302163  0.87032648    -0.74800
O185        O  0.87918986  0.68584974  0.82061668    -0.74700
O186        O  0.84591780  0.69566139  0.81372618    -0.74500
C187        C  0.80642712  0.70021425  0.86930073     0.77300
C188        C  0.82303064  0.61827847  0.88800709     0.77700
C189        C  0.80289448  0.64257389  0.81050135     0.76700
C190        C  0.88191603  0.61789064  0.82750204     0.77100
C191        C  0.88309866  0.67645037  0.88940219     0.78200
C192        C  0.86584186  0.69731608  0.81047909     0.77300
Zn193      Zn  0.83046362  0.31571864  0.17061413     1.49700
Zn194      Zn  0.84307683  0.33110266  0.12426926     1.49400
Zn195      Zn  0.83971602  0.36532281  0.16215348     1.49100
Zn196      Zn  0.87782275  0.33104775  0.16253120     1.49500
O197        O  0.84783330  0.33596244  0.15479997    -1.84000
O198        O  0.81435250  0.29597377  0.15146259    -0.74600
O199        O  0.83138685  0.35752247  0.10994966    -0.74400
O200        O  0.81629348  0.36526805  0.18452308    -0.74000
O201        O  0.82148866  0.30762108  0.11882059    -0.74600
O202        O  0.80945094  0.33082242  0.18913505    -0.74200
O203        O  0.82852489  0.38112173  0.13622382    -0.74800
O204        O  0.89136124  0.35788076  0.17359200    -0.74200
O205        O  0.87071023  0.32198015  0.11039363    -0.75000
O206        O  0.86512024  0.38171972  0.17382665    -0.74400
O207        O  0.89424972  0.32113606  0.13687185    -0.74800
O208        O  0.88133920  0.30863671  0.18560711    -0.74700
O209        O  0.84797284  0.29764120  0.18983055    -0.74500
C210        C  0.81193648  0.29489353  0.13140785     0.77300
C211        C  0.82605403  0.37590152  0.11675652     0.77700
C212        C  0.80566332  0.35029445  0.19329542     0.76700
C213        C  0.88443230  0.37653690  0.17755942     0.77100
C214        C  0.88941112  0.31814099  0.11741167     0.78200
C215        C  0.86765913  0.29648016  0.19440852     0.77300
Zn216      Zn  0.17565211  0.66731758  0.16993151     1.49700
Zn217      Zn  0.16144197  0.62005754  0.16003556     1.49400
Zn218      Zn  0.12689816  0.65804838  0.16085783     1.49100
Zn219      Zn  0.16199068  0.65609330  0.12279827     1.49500
O220        O  0.15630107  0.65020812  0.15317441    -1.84000
O221        O  0.19610870  0.64967013  0.18641928    -0.74600
O222        O  0.13454946  0.60611815  0.17141908    -0.74400
O223        O  0.12590678  0.68169566  0.18323331    -0.74000
O224        O  0.18484017  0.61637150  0.18222596    -0.74600
O225        O  0.16012857  0.68580530  0.19041646    -0.74200
O226        O  0.11077683  0.63242353  0.17235746    -0.74800
O227        O  0.13491484  0.66640144  0.10843167    -0.74200
O228        O  0.17149331  0.60448445  0.13369323    -0.75000
O229        O  0.11140417  0.66862361  0.13489962    -0.74400
O230        O  0.17258993  0.62923761  0.10832599    -0.74800
O231        O  0.18458751  0.67935860  0.11843266    -0.74700
O232        O  0.19277843  0.68683250  0.15193519    -0.74500
C233        C  0.19766479  0.62987503  0.19034230     0.77300
C234        C  0.11590780  0.61303787  0.17573523     0.77700
C235        C  0.14074166  0.69067317  0.19380545     0.76700
C236        C  0.11631272  0.67095450  0.11533393     0.77100
C237        C  0.17547486  0.61009944  0.11457392     0.78200
C238        C  0.19509269  0.69007743  0.13211957     0.77300
C239        C  0.52326526  0.24216442  0.00945594     0.03300
C240        C  0.52334065  0.26456872  0.01028796    -0.12900
C241        C  0.50969582  0.27651565  0.99718228     0.00800
C242        C  0.49613445  0.26585488  0.98289149    -0.11400
C243        C  0.49579027  0.24347792  0.98202001     0.03200
C244        C  0.50922743  0.23174682  0.99547667    -0.10800
H245        H  0.53370867  0.27270576  0.02146135     0.08800
H246        H  0.48565923  0.27496231  0.97262831     0.06400
H247        H  0.50892418  0.21447480  0.99488618     0.06200
C248        C  0.48171203  0.75002174  0.01005279     0.03300
C249        C  0.49382520  0.76160926  0.99520595    -0.12900
C250        C  0.50806606  0.75115317  0.98147283     0.00800
C251        C  0.51034142  0.72892511  0.98279504    -0.11400
C252        C  0.49861119  0.71718432  0.99781240     0.03200
C253        C  0.48443170  0.72783947  0.01146086    -0.10800
H254        H  0.49197602  0.77876058  0.99413279     0.08800
H255        H  0.52130163  0.72077904  0.97220215     0.06400
H256        H  0.47552275  0.71883159  0.02321832     0.06200
C257        C  0.48978343  0.98005265  0.24532714     0.03300
C258        C  0.50379083  0.99454358  0.23559264    -0.12900
C259        C  0.51842457  0.00618455  0.24785013     0.00800
C260        C  0.51890123  0.00341119  0.27003809    -0.11400
C261        C  0.50518166  0.98870297  0.27999107     0.03200
C262        C  0.49076081  0.97701622  0.26746112    -0.10800
H263        H  0.50320267  0.99689087  0.21850957     0.08800
H264        H  0.52973108  0.01294061  0.27954695     0.06400
H265        H  0.48013470  0.96562006  0.27497324     0.06200
C266        C  0.25322965  0.01206145  0.98390639     0.03300
C267        C  0.26427722  0.99708616  0.99628090    -0.12900
C268        C  0.25314326  0.98265903  0.00931354     0.00800
C269        C  0.23075602  0.98348138  0.01000164    -0.11400
C270        C  0.21955423  0.99808303  0.99733744     0.03200
C271        C  0.23083684  0.01214224  0.98412149    -0.10800
H272        H  0.28156732  0.99685744  0.99598146     0.08800
H273        H  0.22202711  0.97281532  0.02043935     0.06400
H274        H  0.22219742  0.02343773  0.97432877     0.06200
C275        C  0.74646418  0.98184488  0.98859722     0.03300
C276        C  0.76887035  0.98220425  0.98892557    -0.12900
C277        C  0.77976693  0.99618413  0.00260518     0.00800
C278        C  0.76808789  0.00955161  0.01618701    -0.11400
C279        C  0.74573546  0.00918409  0.01601980     0.03200
C280        C  0.73498477  0.99549069  0.00205640    -0.10800
H281        H  0.77779380  0.97173217  0.97846739     0.08800
H282        H  0.77639475  0.02029293  0.02687005     0.06400
H283        H  0.71768772  0.99533335  0.00179498     0.06200
Zn284      Zn  0.66901875  0.82663995  0.82852075     1.49700
Zn285      Zn  0.62140386  0.84117108  0.83883140     1.49400
Zn286      Zn  0.65698480  0.83943791  0.87580587     1.49100
Zn287      Zn  0.65949212  0.87532258  0.83923266     1.49500
O288        O  0.65162338  0.84571175  0.84567691    -1.84000
O289        O  0.65116501  0.81076010  0.80731017    -0.74600
O290        O  0.60555524  0.82993855  0.86435468    -0.74400
O291        O  0.67988656  0.81684189  0.87951678    -0.74000
O292        O  0.61768297  0.81963777  0.81501432    -0.74600
O293        O  0.68497358  0.80549681  0.84639052    -0.74200
O294        O  0.63005547  0.82852878  0.88989848    -0.74800
O295        O  0.67033784  0.88994963  0.86556094    -0.74200
O296        O  0.60752256  0.86876524  0.82954442    -0.75000
O297        O  0.66727844  0.86572352  0.89120232    -0.74400
O298        O  0.63417756  0.89210884  0.82879065    -0.74800
O299        O  0.68310106  0.87707911  0.81725832    -0.74700
O300        O  0.69124352  0.84291739  0.81239331    -0.74500
C301        C  0.63120299  0.80931806  0.80391888     0.77300
C302        C  0.61099108  0.82567868  0.88341133     0.77700
C303        C  0.68870814  0.80425614  0.86625018     0.76700
C304        C  0.67227976  0.88439944  0.88496258     0.77100
C305        C  0.61455304  0.88753899  0.82613755     0.78200
C306        C  0.69465480  0.86260337  0.80895300     0.77300
C307        C  0.51411582  0.98956482  0.75349879     0.03300
C308        C  0.49892175  0.00157268  0.76472255    -0.12900
C309        C  0.48400856  0.01416183  0.75383586     0.00800
C310        C  0.48401346  0.01428512  0.73145800    -0.11400
C311        C  0.49871646  0.00186301  0.71996438     0.03200
C312        C  0.51398030  0.98989636  0.73113086    -0.10800
H313        H  0.49861350  0.00106121  0.78196587     0.08800
H314        H  0.47248857  0.02396509  0.72300245     0.06400
H315        H  0.52576126  0.98075971  0.72238711     0.06200
Zn316      Zn  0.36313421  0.13813275  0.86462377     1.49700
Zn317      Zn  0.31488627  0.15115761  0.85268856     1.49400
Zn318      Zn  0.35104678  0.18669003  0.85353063     1.49100
Zn319      Zn  0.35059622  0.15146466  0.81663318     1.49500
O320        O  0.34504286  0.15674674  0.84692496    -1.84000
O321        O  0.34467767  0.11977490  0.88417683    -0.74600
O322        O  0.29924727  0.17774515  0.86185817    -0.74400
O323        O  0.37433523  0.18932432  0.87535341    -0.74000
O324        O  0.31160751  0.12892206  0.87524442    -0.74600
O325        O  0.38368604  0.15597973  0.88269486    -0.74200
O326        O  0.32471497  0.20226296  0.86346272    -0.74800
O327        O  0.36108462  0.17810628  0.80202968    -0.74200
O328        O  0.29955645  0.14091042  0.82657272    -0.75000
O329        O  0.36099573  0.20257758  0.82754451    -0.74400
O330        O  0.32393356  0.14214134  0.80098127    -0.74800
O331        O  0.37274074  0.12862034  0.81291597    -0.74700
O332        O  0.38073295  0.11818666  0.84581470    -0.74500
C333        C  0.32450655  0.11788742  0.88633277     0.77300
C334        C  0.30521485  0.19683837  0.86530707     0.77700
C335        C  0.38617966  0.17605495  0.88513043     0.76700
C336        C  0.36425354  0.19715724  0.80829212     0.77100
C337        C  0.30483059  0.13888838  0.80712249     0.78200
C338        C  0.38294285  0.11659145  0.82566304     0.77300
Zn339      Zn  0.32552189  0.82714137  0.17028202     1.49700
Zn340      Zn  0.33732269  0.83791962  0.12274316     1.49400
Zn341      Zn  0.33795654  0.87475642  0.15886624     1.49100
Zn342      Zn  0.37366714  0.83777291  0.15929706     1.49500
O343        O  0.34381623  0.84457814  0.15261393    -1.84000
O344        O  0.30935116  0.80553904  0.15345372    -0.74600
O345        O  0.32726339  0.86443219  0.10744958    -0.74400
O346        O  0.31340299  0.87830418  0.17973407    -0.74000
O347        O  0.31474721  0.81459416  0.11977364    -0.74600
O348        O  0.30396483  0.84470624  0.18549951    -0.74200
O349        O  0.32843719  0.88986839  0.13218702    -0.74800
O350        O  0.38940800  0.86436519  0.16874478    -0.74200
O351        O  0.36353274  0.82650727  0.10804256    -0.75000
O352        O  0.36443288  0.88948253  0.17028820    -0.74400
O353        O  0.38828220  0.82535663  0.13333644    -0.74800
O354        O  0.37601764  0.81618719  0.18350145    -0.74700
O355        O  0.34211770  0.81117237  0.19186487    -0.74500
C356        C  0.30584556  0.80279479  0.13372158     0.77300
C357        C  0.32462719  0.88375270  0.11322173     0.77700
C358        C  0.30092407  0.86456580  0.18803082     0.76700
C359        C  0.38370832  0.88347303  0.17279026     0.77100
C360        C  0.38226185  0.82171596  0.11428988     0.78200
C361        C  0.36178236  0.80752973  0.19513668     0.77300
Zn362      Zn  0.63893185  0.13257339  0.13906238     1.49700
Zn363      Zn  0.65176201  0.14616261  0.18645196     1.49400
Zn364      Zn  0.68736701  0.14549801  0.15029728     1.49100
Zn365      Zn  0.65086060  0.18112237  0.14984365     1.49500
O366        O  0.65722976  0.15127591  0.15628201    -1.84000
O367        O  0.61996448  0.11411001  0.15798868    -0.74600
O368        O  0.67829575  0.13697264  0.20186549    -0.74400
O369        O  0.69027175  0.12176707  0.12903306    -0.74000
O370        O  0.62882894  0.12426382  0.19057379    -0.74600
O371        O  0.65687788  0.11305495  0.12074258    -0.74200
O372        O  0.70336555  0.13730557  0.17700030    -0.74800
O373        O  0.67655335  0.19603820  0.13779005    -0.74200
O374        O  0.64288138  0.17289980  0.20148240    -0.75000
O375        O  0.70217842  0.17162815  0.13861925    -0.74400
O376        O  0.64323793  0.19760199  0.17628690    -0.74800
O377        O  0.62692491  0.18358492  0.12870126    -0.74700
O378        O  0.62004642  0.15000577  0.11940945    -0.74500
C379        C  0.61759535  0.11282485  0.17812013     0.77300
C380        C  0.69773801  0.13498364  0.19634068     0.77700
C381        C  0.67694199  0.11046274  0.11870799     0.76700
C382        C  0.69588871  0.19057954  0.13494181     0.77100
C383        C  0.64075131  0.19219635  0.19564988     0.78200
C384        C  0.61674802  0.16998473  0.11758844     0.77300
C385        C  0.51633548  0.48599293  0.25135694     0.03300
C386        C  0.51614053  0.48633222  0.22900531    -0.12900
C387        C  0.50203594  0.49975136  0.21803504     0.00800
C388        C  0.48799346  0.51282547  0.22950641    -0.11400
C389        C  0.48752556  0.51210799  0.25184371     0.03200
C390        C  0.50185265  0.49878695  0.26267959    -0.10800
H391        H  0.52693141  0.47614641  0.22014262     0.08800
H392        H  0.47715632  0.52326619  0.22103560     0.06400
H393        H  0.50171675  0.49836173  0.27993535     0.06200
C394        C  0.74675261  0.48850094  0.48872079     0.03300
C395        C  0.73532758  0.50151628  0.50291645    -0.12900
C396        C  0.74612440  0.51502229  0.51712678     0.00800
C397        C  0.76853744  0.51572123  0.51676054    -0.11400
C398        C  0.78012681  0.50298527  0.50243484     0.03200
C399        C  0.76912379  0.48935775  0.48852081    -0.10800
H400        H  0.71803663  0.50104660  0.50297774     0.08800
H401        H  0.77695972  0.52622899  0.52758177     0.06400
H402        H  0.77798207  0.47941816  0.47750003     0.06200
Zn403      Zn  0.63670140  0.36555574  0.36535079     1.49700
Zn404      Zn  0.64789544  0.31679989  0.35381313     1.49400
Zn405      Zn  0.65150063  0.35244775  0.31799475     1.49100
Zn406      Zn  0.68496801  0.35156621  0.35549291     1.49500
O407        O  0.65510973  0.34665145  0.34830119    -1.84000
O408        O  0.61538359  0.34800607  0.38277631    -0.74600
O409        O  0.64179340  0.30085901  0.32656092    -0.74400
O410        O  0.62952279  0.37500908  0.31319894    -0.74000
O411        O  0.62198697  0.31467573  0.37249566    -0.74600
O412        O  0.61945648  0.38488852  0.34573564    -0.74200
O413        O  0.64279136  0.32627073  0.30200788    -0.74800
O414        O  0.70279746  0.35845872  0.32975910    -0.74200
O415        O  0.67230942  0.30142338  0.36804812    -0.75000
O416        O  0.67900662  0.36091471  0.30392304    -0.74400
O417        O  0.69819606  0.32554912  0.36861882    -0.74800
O418        O  0.68771140  0.37571813  0.37593977    -0.74700
O419        O  0.65464767  0.38451413  0.38492211    -0.74500
C420        C  0.61105015  0.32809602  0.38309986     0.77300
C421        C  0.64024474  0.30686623  0.30726968     0.77700
C422        C  0.61824997  0.38654553  0.32551392     0.76700
C423        C  0.69825890  0.36148225  0.31028547     0.77100
C424        C  0.69140862  0.30681416  0.37245107     0.78200
C425        C  0.67477769  0.38713410  0.38663228     0.77300
C426        C  0.51084991  0.25224202  0.48242971     0.03300
C427        C  0.51021732  0.22991567  0.48059625    -0.12900
C428        C  0.49766787  0.21766712  0.49452167     0.00800
C429        C  0.48589594  0.22790052  0.51052314    -0.11400
C430        C  0.48602474  0.25019578  0.51234151     0.03200
C431        C  0.49826296  0.26231586  0.49798459    -0.10800
H432        H  0.51949557  0.22206881  0.46831032     0.08800
H433        H  0.47674014  0.21844742  0.52173738     0.06400
H434        H  0.49828585  0.27955808  0.49914406     0.06200
C435        C  0.47959455  0.74339367  0.49135885     0.03300
C436        C  0.49399000  0.73273579  0.50471527    -0.12900
C437        C  0.50780563  0.74424896  0.51794428     0.00800
C438        C  0.50709753  0.76659438  0.51795309    -0.11400
C439        C  0.49263891  0.77753823  0.50484780     0.03200
C440        C  0.47912912  0.76581602  0.49134852    -0.10800
H441        H  0.49448141  0.71545665  0.50479830     0.08800
H442        H  0.51801729  0.77546577  0.52797681     0.06400
H443        H  0.46823231  0.77413286  0.48085715     0.06200
Zn444      Zn  0.35061421  0.64627859  0.31357692     1.49700
Zn445      Zn  0.31571176  0.64766103  0.35032869     1.49400
Zn446      Zn  0.36382470  0.63421069  0.36150882     1.49100
Zn447      Zn  0.35258322  0.68281973  0.34918278     1.49500
O448        O  0.34580338  0.65271892  0.34371716    -1.84000
O449        O  0.32357217  0.63651513  0.29905079    -0.74600
O450        O  0.31243729  0.62557931  0.37315475    -0.74400
O451        O  0.38261567  0.61512428  0.34304309    -0.74000
O452        O  0.29930306  0.63743600  0.32474221    -0.74600
O453        O  0.37290773  0.62351779  0.31006770    -0.74200
O454        O  0.34553407  0.61515058  0.38025212    -0.74800
O455        O  0.37533021  0.68551336  0.37163569    -0.74200
O456        O  0.30109662  0.67464807  0.35940415    -0.75000
O457        O  0.38283319  0.65206304  0.38084434    -0.74400
O458        O  0.32639849  0.69941435  0.35851153    -0.74800
O459        O  0.36306126  0.69737036  0.32250018    -0.74700
O460        O  0.36065238  0.67230708  0.29766881    -0.74500
C461        C  0.30440512  0.63420282  0.30540674     0.77300
C462        C  0.32544995  0.61367682  0.38317198     0.77700
C463        C  0.38420436  0.61264034  0.32293149     0.76700
C464        C  0.38574857  0.67211567  0.38276001     0.77100
C465        C  0.30703728  0.69394807  0.36148622     0.78200
C466        C  0.36495402  0.69135845  0.30322697     0.77300
C467        C  0.25343497  0.48222994  0.51042624     0.03300
C468        C  0.23109033  0.48339262  0.51036573    -0.12900
C469        C  0.22054417  0.49832163  0.49756090     0.00800
C470        C  0.23250936  0.51189172  0.48443125    -0.11400
C471        C  0.25488531  0.51098227  0.48436325     0.03200
C472        C  0.26529071  0.49608086  0.49740519    -0.10800
H473        H  0.22188797  0.47260826  0.52026288     0.08800
H474        H  0.22438807  0.52345798  0.47450799     0.06400
H475        H  0.28255797  0.49524320  0.49741254     0.06200
C476        C  0.51293551  0.51461182  0.74562835     0.03300
C477        C  0.49753478  0.50290986  0.73447115    -0.12900
C478        C  0.48374292  0.48896940  0.74527631     0.00800
C479        C  0.48551125  0.48680137  0.76746635    -0.11400
C480        C  0.50070067  0.49866473  0.77883497     0.03200
C481        C  0.51427555  0.51264156  0.76782049    -0.10800
H482        H  0.49639229  0.50455088  0.71732926     0.08800
H483        H  0.47506067  0.47590906  0.77589785     0.06400
H484        H  0.52594547  0.52195913  0.77651674     0.06200
Zn485      Zn  0.32954222  0.32691161  0.67040788     1.49700
Zn486      Zn  0.34231018  0.33741316  0.62280897     1.49400
Zn487      Zn  0.34008579  0.37462258  0.65796267     1.49100
Zn488      Zn  0.37735835  0.33919875  0.66075649     1.49500
O489        O  0.34752381  0.34464488  0.65281963    -1.84000
O490        O  0.31143713  0.30780719  0.65307304    -0.74600
O491        O  0.33121129  0.36295055  0.60668100    -0.74400
O492        O  0.31692219  0.37792667  0.68017364    -0.74000
O493        O  0.32019273  0.31394053  0.61940770    -0.74600
O494        O  0.31015445  0.34420786  0.68847216    -0.74200
O495        O  0.32932464  0.38847225  0.63116285    -0.74800
O496        O  0.39121883  0.36655485  0.67072872    -0.74200
O497        O  0.36953525  0.32710176  0.60924607    -0.75000
O498        O  0.36558727  0.39089181  0.66837669    -0.74400
O499        O  0.39358172  0.32813807  0.63525916    -0.74800
O500        O  0.38017392  0.31654893  0.68405396    -0.74700
O501        O  0.34626208  0.30780546  0.68919714    -0.74500
C502        C  0.30927162  0.30401488  0.63334740     0.77300
C503        C  0.32666321  0.38199136  0.61213835     0.77700
C504        C  0.30664218  0.36402491  0.69079365     0.76700
C505        C  0.38469924  0.38571919  0.67280145     0.77100
C506        C  0.38844465  0.32410614  0.61604044     0.78200
C507        C  0.36594431  0.30512225  0.69304232     0.77300
Zn508      Zn  0.64631477  0.68795669  0.65112854     1.49700
Zn509      Zn  0.68405926  0.65388112  0.65018016     1.49400
Zn510      Zn  0.64788244  0.65132069  0.68594661     1.49100
Zn511      Zn  0.63633444  0.63936366  0.63787705     1.49500
O512        O  0.65366189  0.65806441  0.65613394    -1.84000
O513        O  0.67193182  0.70516600  0.64228891    -0.74600
O514        O  0.69953166  0.64364373  0.67646049    -0.74400
O515        O  0.63667464  0.67666319  0.70194045    -0.74000
O516        O  0.69822470  0.68150009  0.64114326    -0.74600
O517        O  0.63497958  0.70210918  0.67761144    -0.74200
O518        O  0.67427609  0.64174367  0.70117304    -0.74800
O519        O  0.61661316  0.62056173  0.65565569    -0.74200
O520        O  0.68830311  0.63195759  0.62707718    -0.75000
O521        O  0.62596661  0.62846883  0.68865946    -0.74400
O522        O  0.65554082  0.62057293  0.61957559    -0.74800
O523        O  0.61778283  0.65702824  0.61809789    -0.74700
O524        O  0.62452009  0.69040566  0.62798722    -0.74500
C525        C  0.69145468  0.70056332  0.63923689     0.77300
C526        C  0.69363369  0.63963785  0.69547283     0.77700
C527        C  0.63257932  0.69579972  0.69673406     0.76700
C528        C  0.61455182  0.61789540  0.67567306     0.77100
C529        C  0.67569531  0.61993165  0.61663684     0.78200
C530        C  0.61490204  0.67706470  0.61611134     0.77300
C531        C  0.24406509  0.98741502  0.48571511     0.03300
C532        C  0.23256470  0.00048586  0.49970887    -0.12900
C533        C  0.24322945  0.01277876  0.51502100     0.00800
C534        C  0.26563851  0.01239448  0.51584334    -0.11400
C535        C  0.27738471  0.99950641  0.50175231     0.03200
C536        C  0.26643742  0.98714941  0.48660925    -0.10800
H537        H  0.21528243  0.00058542  0.49911188     0.08800
H538        H  0.27391462  0.02200855  0.52756863     0.06400
H539        H  0.27529510  0.97725371  0.47555183     0.06200
C540        C  0.75199656  0.01440830  0.49296343     0.03300
C541        C  0.72971061  0.01335039  0.49133722    -0.12900
C542        C  0.71797002  0.99946535  0.50434279     0.00800
C543        C  0.72863286  0.98682676  0.51935775    -0.11400
C544        C  0.75096702  0.98759396  0.52111071     0.03200
C545        C  0.76258872  0.00113954  0.50751434    -0.10800
H546        H  0.72150485  0.02324678  0.47981824     0.08800
H547        H  0.71949718  0.97649402  0.52978934     0.06400
H548        H  0.77984450  0.00156240  0.50841868     0.06200
C549        C  0.01118746  0.25099334  0.52054391     0.03300
C550        C  0.01168822  0.27338738  0.52090875    -0.12900
C551        C  0.99814722  0.28521956  0.50760946     0.00800
C552        C  0.98415360  0.27447200  0.49385537    -0.11400
C553        C  0.98360831  0.25212524  0.49340289     0.03200
C554        C  0.99729895  0.24047027  0.50658746    -0.10800
H555        H  0.02280234  0.28156983  0.53129689     0.08800
H556        H  0.97369979  0.28348813  0.48348625     0.06400
H557        H  0.99689366  0.22318866  0.50623338     0.06200
C558        C  0.98224882  0.01744877  0.25493804     0.03300
C559        C  0.99552468  0.00326265  0.26605747    -0.12900
C560        C  0.01030225  0.99042283  0.25518756     0.00800
C561        C  0.01108736  0.99122708  0.23281316    -0.11400
C562        C  0.99798535  0.00533946  0.22138375     0.03200
C563        C  0.98386089  0.01863667  0.23261936    -0.10800
H564        H  0.99421465  0.00206535  0.28322413     0.08800
H565        H  0.02194234  0.98084527  0.22426589     0.06400
H566        H  0.97405553  0.02988147  0.22394201     0.06200
C567        C  0.01445124  0.75844604  0.48513469     0.03300
C568        C  0.01400285  0.73608084  0.48505523    -0.12900
C569        C  0.00046572  0.72491190  0.49894864     0.00800
C570        C  0.98686023  0.73636400  0.51255347    -0.11400
C571        C  0.98703400  0.75877221  0.51264289     0.03200
C572        C  0.00117235  0.76972344  0.49915642    -0.10800
H573        H  0.02425941  0.72737059  0.47420402     0.08800
H574        H  0.97616709  0.72783206  0.52313367     0.06400
H575        H  0.00162577  0.78700093  0.49935132     0.06200
Zn576      Zn  0.13636395  0.86591157  0.36000287     1.49700
Zn577      Zn  0.18428636  0.85513152  0.34603943     1.49400
Zn578      Zn  0.14972905  0.81787093  0.34727044     1.49100
Zn579      Zn  0.14705655  0.85403667  0.31143878     1.49500
O580        O  0.15425153  0.84825275  0.34126814    -1.84000
O581        O  0.15463616  0.88509274  0.37874474    -0.74600
O582        O  0.20149586  0.82897906  0.35343807    -0.74400
O583        O  0.12811074  0.81394864  0.37083048    -0.74000
O584        O  0.18777477  0.87688661  0.36931902    -0.74600
O585        O  0.11840859  0.84698704  0.37928190    -0.74200
O586        O  0.17726933  0.80322298  0.35531578    -0.74800
O587        O  0.13742226  0.82735000  0.29639238    -0.74200
O588        O  0.19766728  0.86678833  0.31951121    -0.75000
O589        O  0.13933005  0.80222691  0.32109773    -0.74400
O590        O  0.17244098  0.86525577  0.29504285    -0.74800
O591        O  0.12369561  0.87579932  0.30922806    -0.74700
O592        O  0.11646016  0.88480082  0.34263945    -0.74500
C593        C  0.17474561  0.88744229  0.38078758     0.77300
C594        C  0.19658118  0.80948532  0.35626616     0.77700
C595        C  0.11682069  0.82684868  0.38177056     0.76700
C596        C  0.13536791  0.80795687  0.30206444     0.77100
C597        C  0.19157882  0.86943994  0.30042441     0.78200
C598        C  0.11314910  0.88674100  0.32269529     0.77300
Zn599      Zn  0.87400512  0.16283575  0.34753707     1.49700
Zn600      Zn  0.83751027  0.16291139  0.38419211     1.49400
Zn601      Zn  0.82644630  0.17539324  0.33637458     1.49100
Zn602      Zn  0.83715444  0.12724641  0.34690015     1.49500
O603        O  0.84387666  0.15696863  0.35398140    -1.84000
O604        O  0.88886890  0.17438451  0.37344586    -0.74600
O605        O  0.81394976  0.18538222  0.38747382    -0.74400
O606        O  0.84394605  0.19400939  0.31753420    -0.74000
O607        O  0.86389663  0.17478881  0.39870852    -0.74600
O608        O  0.87745419  0.18536664  0.32477620    -0.74200
O609        O  0.80872698  0.19466649  0.35379662    -0.74800
O610        O  0.81381942  0.12494661  0.32465194    -0.74200
O611        O  0.82798596  0.13577286  0.39917731    -0.75000
O612        O  0.80622918  0.15891916  0.31821789    -0.74400
O613        O  0.82692275  0.11167113  0.37312779    -0.74800
O614        O  0.86310315  0.11220472  0.33515862    -0.74700
O615        O  0.88895592  0.13642229  0.33668372    -0.74500
C616        C  0.88281280  0.17879147  0.39230630     0.77300
C617        C  0.80473400  0.19686784  0.37347781     0.77700
C618        C  0.86385360  0.19630962  0.31449492     0.76700
C619        C  0.80294744  0.13917095  0.31512514     0.77100
C620        C  0.82422916  0.11688837  0.39256732     0.78200
C621        C  0.88245374  0.11768938  0.33216440     0.77300
C622        C  0.01761897  0.01275029  0.74654617     0.03300
C623        C  0.01829811  0.01273527  0.76888428    -0.12900
C624        C  0.00436090  0.99978281  0.78060246     0.00800
C625        C  0.99015936  0.98629928  0.76987457    -0.11400
C626        C  0.98919760  0.98621836  0.74756295     0.03200
C627        C  0.00270700  0.99982687  0.73595804    -0.10800
H628        H  0.02930578  0.02318856  0.77714294     0.08800
H629        H  0.97971412  0.97593077  0.77896674     0.06400
H630        H  0.00180078  0.00018618  0.71873196     0.06200
Zn631      Zn  0.87752909  0.83893974  0.66335438     1.49700
Zn632      Zn  0.82996525  0.82465504  0.67372741     1.49400
Zn633      Zn  0.84001994  0.87392354  0.66604387     1.49100
Zn634      Zn  0.84065033  0.84098597  0.62711775     1.49500
O635        O  0.84720268  0.84469616  0.65748690    -1.84000
O636        O  0.88132070  0.81478077  0.68483391    -0.74600
O637        O  0.80968163  0.83991278  0.69306682    -0.74400
O638        O  0.86548685  0.88876811  0.67864152    -0.74000
O639        O  0.84786098  0.80497373  0.69124263    -0.74600
O640        O  0.89164254  0.86495607  0.67619678    -0.74200
O641        O  0.81668107  0.87432708  0.68826525    -0.74800
O642        O  0.82986246  0.86827481  0.61400601    -0.74200
O643        O  0.81206557  0.80647734  0.65488007    -0.75000
O644        O  0.82927613  0.89105226  0.64104200    -0.74400
O645        O  0.81737843  0.81892683  0.62219172    -0.74800
O646        O  0.86699463  0.83117511  0.61157379    -0.74700
O647        O  0.89271334  0.83037725  0.63602260    -0.74500
C648        C  0.86780357  0.80278932  0.69417041     0.77300
C649        C  0.80606596  0.85944838  0.69710872     0.77700
C650        C  0.88477343  0.88325033  0.68179665     0.76700
C651        C  0.82560131  0.88662494  0.62159979     0.77100
C652        C  0.80810037  0.80627607  0.63506681     0.78200
C653        C  0.88622873  0.82745384  0.61698208     0.77300
Zn654      Zn  0.16152763  0.12673892  0.66186002     1.49700
Zn655      Zn  0.16127104  0.16233351  0.62475111     1.49400
Zn656      Zn  0.12475948  0.16268424  0.66134999     1.49100
Zn657      Zn  0.17229799  0.17500070  0.67228937     1.49500
O658        O  0.15483436  0.15653936  0.65488153    -1.84000
O659        O  0.17157165  0.11089459  0.63575838    -0.74600
O660        O  0.13468218  0.17233405  0.60971002    -0.74400
O661        O  0.10994173  0.13634585  0.67203116    -0.74000
O662        O  0.17206561  0.13556401  0.61030412    -0.74600
O663        O  0.13542270  0.11165448  0.67281472    -0.74200
O664        O  0.10964635  0.17272288  0.63489721    -0.74800
O665        O  0.15483445  0.19308847  0.69163485    -0.74200
O666        O  0.18366094  0.18570550  0.62103206    -0.75000
O667        O  0.12122169  0.18534243  0.68427180    -0.74400
O668        O  0.18973981  0.19460954  0.65461641    -0.74800
O669        O  0.19267410  0.15851026  0.69010077    -0.74700
O670        O  0.18505823  0.12446926  0.68406099    -0.74500
C671        C  0.17535824  0.11652866  0.61663977     0.77300
C672        C  0.11554933  0.17574530  0.61570937     0.77700
C673        C  0.11616972  0.11740241  0.67579327     0.76700
C674        C  0.13499757  0.19589999  0.69478479     0.77100
C675        C  0.19317029  0.19715383  0.63484108     0.78200
C676        C  0.19614330  0.13880922  0.69324571     0.77300
C677        C  0.06733355  0.04058992  0.72592558    -0.11300
C678        C  0.05832622  0.05661404  0.71326475     0.15300
C679        C  0.03598314  0.05731242  0.71049583     0.02200
C680        C  0.02310463  0.04259268  0.72124572    -0.15600
C681        C  0.03206565  0.02684960  0.73434821    -0.10400
C682        C  0.05449920  0.02556765  0.73627398     0.08900
C683        C  0.07268870  0.07252046  0.70348700     0.09900
S684        S  0.02294561  0.07673195  0.69378600    -0.24700
H685        H  0.00592281  0.04358653  0.71960208     0.20200
S686        S  0.06772363  0.00502566  0.75140777    -0.30400
H687        H  0.08450913  0.03982954  0.72778443     0.10500
C688        C  0.07379005  0.09360698  0.71116769     0.03700
C689        C  0.08766562  0.10813910  0.70135631    -0.12700
C690        C  0.10074225  0.10186496  0.68430718    -0.08400
C691        C  0.09946211  0.08073952  0.67656269     0.07200
C692        C  0.08561432  0.06626230  0.68637157    -0.13500
S693        S  0.05824453  0.10172668  0.73402233    -0.30400
H694        H  0.08885056  0.12427609  0.70738597     0.11400
S695        S  0.11449395  0.07146917  0.65385796    -0.27500
H696        H  0.08465144  0.05006384  0.68043974     0.08600
H697        H  0.05221994  0.98918926  0.74787724     0.27100
H698        H  0.06510181  0.12308957  0.73444469     0.21900
H699        H  0.11398559  0.09095819  0.64277654     0.27200
H700        H  0.03990470  0.07949570  0.67938176     0.16000
C701        C  0.92981760  0.90755860  0.71441014    -0.11300
C702        C  0.92784215  0.92918819  0.70908996     0.15300
C703        C  0.91147117  0.93562510  0.69508390     0.02200
C704        C  0.89731763  0.92039056  0.68699869    -0.15600
C705        C  0.89945733  0.89865636  0.69200620    -0.10400
C706        C  0.91572257  0.89229239  0.70626322     0.08900
C707        C  0.94313006  0.94451245  0.71849915     0.09900
S708        S  0.90808379  0.96286241  0.68645901    -0.24700
H709        H  0.88493759  0.92548953  0.67610563     0.20200
S710        S  0.91876183  0.86524011  0.71553486    -0.30400
H711        H  0.94222571  0.90260130  0.72534526     0.10500
C712        C  0.93684727  0.95940301  0.73410762     0.03700
C713        C  0.95213672  0.97314037  0.74290363    -0.12700
C714        C  0.97367856  0.97206902  0.73672089    -0.08400
C715        C  0.97990176  0.95699122  0.72115028     0.07200
C716        C  0.96454499  0.94358332  0.71209831    -0.13500
S717        S  0.90961725  0.96030758  0.74354738    -0.30400
H718        H  0.94739696  0.98458414  0.75492380     0.11400
S719        S  0.00721035  0.95324071  0.71286427    -0.27500
H720        H  0.96939076  0.93197773  0.70025670     0.08600
H721        H  0.89673446  0.86111390  0.71700522     0.27100
H722        H  0.91184678  0.97866758  0.75623360     0.21900
H723        H  0.01622897  0.95730153  0.73295184     0.27200
H724        H  0.92967531  0.96873478  0.68792629     0.16000
C725        C  0.04148255  0.77859524  0.43490757    -0.11300
C726        C  0.05855554  0.79024289  0.44343105     0.15300
C727        C  0.06051361  0.79220630  0.46574806     0.02200
C728        C  0.04573635  0.78193603  0.47900577    -0.15600
C729        C  0.02883190  0.77000689  0.47046266    -0.10400
C730        C  0.02650255  0.76867205  0.44813526     0.08900
C731        C  0.07406136  0.79988482  0.42848411     0.09900
S732        S  0.08169622  0.80710905  0.47825996    -0.24700
H733        H  0.04755561  0.78304889  0.49613737     0.20200
S734        S  0.00467143  0.75477474  0.43557259    -0.30400
H735        H  0.03981134  0.77727111  0.41777436     0.10500
C736        C  0.09333083  0.78960554  0.42327690     0.03700
C737        C  0.10698911  0.79879272  0.40807975    -0.12700
C738        C  0.10170266  0.81802320  0.39779055    -0.08400
C739        C  0.08211262  0.82805432  0.40297247     0.07200
C740        C  0.06870235  0.81901608  0.41835433    -0.13500
S741        S  0.10026403  0.76456937  0.43568005    -0.30400
H742        H  0.12188821  0.79096714  0.40421834     0.11400
S743        S  0.07247988  0.85152517  0.38960874    -0.27500
H744        H  0.05365009  0.82665891  0.42207946     0.08600
H745        H  0.98965249  0.75868274  0.45176667     0.27100
H746        H  0.11944573  0.76129536  0.42449631     0.21900
H747        H  0.07850608  0.84435937  0.36923734     0.27200
H748        H  0.08475345  0.82186171  0.46170361     0.16000
C749        C  0.94450799  0.79638901  0.53432481    -0.11300
C750        C  0.94589524  0.79227379  0.55622816     0.15300
C751        C  0.96074989  0.77707855  0.56364927     0.02200
C752        C  0.97410027  0.76667880  0.54912222    -0.15600
C753        C  0.97264735  0.77062383  0.52717550    -0.10400
C754        C  0.95750677  0.78558332  0.51971529     0.08900
C755        C  0.93062539  0.80282734  0.57081138     0.09900
S756        S  0.96326240  0.77000477  0.59138105    -0.24700
H757        H  0.98560029  0.75519104  0.55497173     0.20200
S758        S  0.95329894  0.79092424  0.49180832    -0.30400
H759        H  0.93282330  0.80772507  0.52854268     0.10500
C760        C  0.93698645  0.81890185  0.58516029     0.03700
C761        C  0.92224867  0.82673329  0.60014053    -0.12700
C762        C  0.90121203  0.81894711  0.60084290    -0.08400
C763        C  0.89491733  0.80302271  0.58614250     0.07200
C764        C  0.90955046  0.79543493  0.57115313    -0.13500
S765        S  0.96377761  0.82948173  0.58423009    -0.30400
H766        H  0.92705863  0.83900354  0.61127667     0.11400
S767        S  0.86897680  0.79054012  0.58660544    -0.27500
H768        H  0.90474845  0.78292072  0.56025905     0.08600
H769        H  0.95800053  0.77017282  0.48472863     0.27100
H770        H  0.96097372  0.84503717  0.60013072     0.21900
H771        H  0.86761807  0.78954760  0.60895218     0.27200
H772        H  0.94161382  0.77252769  0.59665019     0.16000
C773        C  0.93194051  0.04691745  0.27265964    -0.11300
C774        C  0.93982709  0.05917747  0.28957994     0.15300
C775        C  0.96139615  0.05696957  0.29564097     0.02200
C776        C  0.97479296  0.04339147  0.28403368    -0.15600
C777        C  0.96705407  0.03128211  0.26684010    -0.10400
C778        C  0.94515026  0.03277150  0.26149166     0.08900
C779        C  0.92525681  0.07430124  0.30042150     0.09900
S780        S  0.97280747  0.07108939  0.31793873    -0.24700
H781        H  0.99146679  0.04228962  0.28845906     0.20200
S782        S  0.93280660  0.01654602  0.24122861    -0.30400
H783        H  0.91528389  0.04826950  0.26823460     0.10500
C784        C  0.92694033  0.09648100  0.29726384     0.03700
C785        C  0.91317207  0.11025326  0.30829422    -0.12700
C786        C  0.89755599  0.10232986  0.32233923    -0.08400
C787        C  0.89607761  0.08001125  0.32554055     0.07200
C788        C  0.90969750  0.06629694  0.31434186    -0.13500
S789        S  0.94618207  0.10718805  0.27866175    -0.30400
H790        H  0.91422352  0.12726543  0.30555404     0.11400
S791        S  0.87790973  0.06801602  0.34433718    -0.27500
H792        H  0.90854041  0.04924829  0.31689808     0.08600
H793        H  0.94569564  0.99852598  0.24466625     0.27100
H794        H  0.94059402  0.12876947  0.28113950     0.21900
H795        H  0.88030858  0.08407511  0.35981184     0.27200
H796        H  0.95396277  0.07245864  0.33001630     0.16000
C797        C  0.05093565  0.96741575  0.29426312    -0.11300
C798        C  0.05149759  0.94604081  0.28776086     0.15300
C799        C  0.03775287  0.93916172  0.27134230     0.02200
C800        C  0.02459997  0.95394709  0.26108730    -0.15600
C801        C  0.02446121  0.97554702  0.26703349    -0.10400
C802        C  0.03778056  0.98226771  0.28399942     0.08900
C803        C  0.06774911  0.93167704  0.29709409     0.09900
S804        S  0.03652505  0.91180555  0.26250610    -0.24700
H805        H  0.01424545  0.94850339  0.24839158     0.20200
S806        S  0.03980633  0.00966611  0.29252892    -0.30400
H807        H  0.06152419  0.97275277  0.30681861     0.10500
C808        C  0.08598921  0.92569930  0.28542475     0.03700
C809        C  0.10041768  0.91109046  0.29422284    -0.12700
C810        C  0.09713483  0.90226512  0.31458125    -0.08400
C811        C  0.07884414  0.90857369  0.32630361     0.07200
C812        C  0.06459874  0.92341389  0.31758410    -0.13500
S813        S  0.09102349  0.93691234  0.25938152    -0.30400
H814        H  0.11443056  0.90660953  0.28519112     0.11400
S815        S  0.07190419  0.89732237  0.35174370    -0.27500
H816        H  0.05050101  0.92794329  0.32649455     0.08600
H817        H  0.03712104  0.01852854  0.27214313     0.27100
H818        H  0.11076999  0.92686981  0.25584162     0.21900
H819        H  0.07640021  0.87629004  0.34537212     0.27200
H820        H  0.04220819  0.90257451  0.28208104     0.16000
C821        C  0.06412833  0.18862656  0.58642313    -0.11300
C822        C  0.07100805  0.20509734  0.57296227     0.15300
C823        C  0.09270693  0.21119556  0.57304680     0.02200
C824        C  0.10702425  0.20051831  0.58633897    -0.15600
C825        C  0.10010033  0.18435990  0.60020346    -0.10400
C826        C  0.07841402  0.17810535  0.59990666     0.08900
C827        C  0.05510668  0.21581397  0.55931212     0.09900
S828        S  0.10304721  0.23292899  0.55723422    -0.24700
H829        H  0.12356399  0.20558327  0.58658112     0.20200
S830        S  0.06808371  0.15648001  0.61580615    -0.30400
H831        H  0.04750615  0.18382679  0.58627902     0.10500
C832        C  0.05513933  0.21331188  0.53700894     0.03700
C833        C  0.04046536  0.22482412  0.52472482    -0.12700
C834        C  0.02553121  0.23845582  0.53435319    -0.08400
C835        C  0.02478988  0.23996250  0.55678431     0.07200
C836        C  0.03975523  0.22887490  0.56897992    -0.13500
S837        S  0.07363773  0.19527515  0.52425736    -0.30400
H838        H  0.04072556  0.22342833  0.50754163     0.11400
S839        S  0.00484585  0.25522445  0.57080660    -0.27500
H840        H  0.03944190  0.23040487  0.58616700     0.08600
H841        H  0.08670243  0.14400900  0.61468439     0.27100
H842        H  0.06667928  0.19875839  0.50326162     0.21900
H843        H  0.98860249  0.25243206  0.55563021     0.27200
H844        H  0.08414695  0.24494534  0.55660611     0.16000
C845        C  0.93317636  0.23119923  0.46735636    -0.11300
C846        C  0.94169784  0.21884110  0.45076376     0.15300
C847        C  0.96407331  0.21751024  0.44833089     0.02200
C848        C  0.97733868  0.22860373  0.46239924    -0.15600
C849        C  0.96880153  0.24079850  0.47907694    -0.10400
C850        C  0.94645581  0.24188987  0.48171474     0.08900
C851        C  0.92681144  0.20813044  0.43590484     0.09900
S852        S  0.97667225  0.20188830  0.42773791    -0.24700
H853        H  0.99450184  0.22767265  0.46038572     0.20200
S854        S  0.93395876  0.25624678  0.50327561    -0.30400
H855        H  0.91601542  0.23232464  0.46924942     0.10500
C856        C  0.91336065  0.19140586  0.44268182     0.03700
C857        C  0.89898811  0.18222216  0.42820669    -0.12700
C858        C  0.89799370  0.18922953  0.40700062    -0.08400
C859        C  0.91149594  0.20608099  0.40032008     0.07200
C860        C  0.92579123  0.21520299  0.41477377    -0.13500
S861        S  0.91501816  0.18126876  0.46955371    -0.30400
H862        H  0.88871274  0.16930370  0.43329780     0.11400
S863        S  0.91058352  0.21744050  0.37394705    -0.27500
H864        H  0.93593559  0.22823328  0.40963773     0.08600
H865        H  0.95023032  0.25267605  0.51824675     0.27100
H866        H  0.89979918  0.16493766  0.46722625     0.21900
H867        H  0.88826850  0.21608625  0.37193116     0.27200
H868        H  0.96080681  0.18606297  0.42668753     0.16000
C869        C  0.78798172  0.96753690  0.56491713    -0.11300
C870        C  0.78353267  0.94562294  0.56461169     0.15300
C871        C  0.76757281  0.93779286  0.55079197     0.02200
C872        C  0.75736271  0.95180324  0.53679915    -0.15600
C873        C  0.76204857  0.97372345  0.53675829    -0.10400
C874        C  0.77718767  0.98169423  0.55147500     0.08900
C875        C  0.79554541  0.93140326  0.57910544     0.09900
S876        S  0.75939572  0.91018278  0.55024496    -0.24700
H877        H  0.74561440  0.94551878  0.52581175     0.20200
S878        S  0.78285786  0.00972984  0.55459312    -0.30400
H879        H  0.79980670  0.97367881  0.57590363     0.10500
C880        C  0.81049651  0.91652181  0.57136412     0.03700
C881        C  0.82032768  0.90236087  0.58560631    -0.12700
C882        C  0.81562531  0.90281561  0.60752158    -0.08400
C883        C  0.80083402  0.91811709  0.61518632     0.07200
C884        C  0.79129710  0.93238732  0.60097742    -0.13500
S885        S  0.81714810  0.91568879  0.54337196    -0.30400
H886        H  0.83168240  0.89081440  0.57963104     0.11400
S887        S  0.79210181  0.91935940  0.64252557    -0.27500
H888        H  0.77972423  0.94377780  0.60688985     0.08600
H889        H  0.76211725  0.01672076  0.54970850     0.27100
H890        H  0.83269219  0.89958812  0.54476905     0.21900
H891        H  0.78913604  0.89718607  0.64444307     0.27200
H892        H  0.76417026  0.90560550  0.57161388     0.16000
C893        C  0.77151481  0.06476025  0.46537572    -0.11300
C894        C  0.78614140  0.05634147  0.45071806     0.15300
C895        C  0.79011500  0.03415032  0.45057156     0.02200
C896        C  0.77906717  0.02091791  0.46479398    -0.15600
C897        C  0.76418933  0.02930266  0.47926640    -0.10400
C898        C  0.76063959  0.05156788  0.47971681     0.08900
C899        C  0.79637686  0.07115614  0.43545442     0.09900
S900        S  0.80848720  0.02155742  0.43232458    -0.24700
H901        H  0.78182061  0.00385718  0.46432806     0.20200
S902        S  0.74264255  0.06417378  0.49829673    -0.30400
H903        H  0.76850806  0.08178342  0.46558533     0.10500
C904        C  0.78857979  0.07351564  0.41457542     0.03700
C905        C  0.79840524  0.08813086  0.40077029    -0.12700
C906        C  0.81569655  0.10071886  0.40750730    -0.08400
C907        C  0.82364288  0.09807269  0.42841123     0.07200
C908        C  0.81376718  0.08350529  0.44219163    -0.13500
S909        S  0.76568877  0.05839315  0.40576636    -0.30400
H910        H  0.79223561  0.09019814  0.38481088     0.11400
S911        S  0.84668853  0.11219871  0.43822570    -0.27500
H912        H  0.81981012  0.08159322  0.45823570     0.08600
H913        H  0.74574557  0.04945960  0.51489932     0.27100
H914        H  0.76391781  0.06788368  0.38555395     0.21900
H915        H  0.85753622  0.11265404  0.41860481     0.27200
H916        H  0.82101529  0.03955904  0.42777238     0.16000
C917        C  0.22112612  0.03708019  0.56599031    -0.11300
C918        C  0.20855722  0.05368095  0.55783530     0.15300
C919        C  0.20659337  0.05600753  0.53554843     0.02200
C920        C  0.21786181  0.04231839  0.52199468    -0.15600
C921        C  0.23084371  0.02603426  0.53014221    -0.10400
C922        C  0.23196832  0.02304542  0.55242510     0.08900
C923        C  0.19943828  0.06949960  0.57284754     0.09900
S924        S  0.19020162  0.07628192  0.52344766    -0.24700
H925        H  0.21670362  0.04454120  0.50492152     0.20200
S926        S  0.24673713  0.00155574  0.56451719    -0.30400
H927        H  0.22266498  0.03518736  0.58307212     0.10500
C928        C  0.18326681  0.06414420  0.58755062     0.03700
C929        C  0.17569875  0.07974367  0.60175466    -0.12700
C930        C  0.18402876  0.10057767  0.60156730    -0.08400
C931        C  0.20054257  0.10565390  0.58706612     0.07200
C932        C  0.20783153  0.09021210  0.57277085    -0.13500
S933        S  0.17179936  0.03770999  0.58775290    -0.30400
H934        H  0.16304110  0.07581922  0.61283637     0.11400
S935        S  0.21392758  0.13108555  0.58680321    -0.27500
H936        H  0.22057974  0.09420886  0.56180272     0.08600
H937        H  0.24378686  0.98692048  0.54780072     0.27100
H938        H  0.15875927  0.04063425  0.60576974     0.21900
H939        H  0.21396617  0.13352782  0.60907831     0.27200
H940        H  0.17524483  0.07761219  0.54010363     0.16000
C941        C  0.22190671  0.93820110  0.45837494    -0.11300
C942        C  0.21154236  0.94723166  0.44079440     0.15300
C943        C  0.21129733  0.96964467  0.43841396     0.02200
C944        C  0.22194205  0.98242022  0.45332977    -0.15600
C945        C  0.23258420  0.97332668  0.47074264    -0.10400
C946        C  0.23219813  0.95097285  0.47346310     0.08900
C947        C  0.20181948  0.93267192  0.42498354     0.09900
S948        S  0.19809334  0.98287649  0.41659374    -0.24700
H949        H  0.22204088  0.99959224  0.45129538     0.20200
S950        S  0.24435541  0.93778023  0.49589101    -0.30400
H951        H  0.22198704  0.92101961  0.46032788     0.10500
C952        C  0.21243678  0.92748383  0.40591994     0.03700
C953        C  0.20315231  0.91280230  0.39183836    -0.12700
C954        C  0.18348447  0.90294047  0.39646413    -0.08400
C955        C  0.17305541  0.90806424  0.41584760     0.07200
C956        C  0.18223102  0.92297087  0.42972209    -0.13500
S957        S  0.23808594  0.93917110  0.39980242    -0.30400
H958        H  0.21128151  0.90899316  0.37711018     0.11400
S959        S  0.14875875  0.89534422  0.42452315    -0.27500
H960        H  0.17429192  0.92669198  0.44459712     0.08600
H961        H  0.24125927  0.95443257  0.51056322     0.27100
H962        H  0.24115364  0.92880466  0.38017174     0.21900
H963        H  0.15512619  0.87477210  0.41821171     0.27200
H964        H  0.18290257  0.96691395  0.41251020     0.16000
C965        C  0.72185363  0.75316636  0.63858313    -0.11300
C966        C  0.73829762  0.74858845  0.62408730     0.15300
C967        C  0.73829462  0.72865862  0.61355658     0.02200
C968        C  0.72281659  0.71339202  0.61872249    -0.15600
C969        C  0.70675797  0.71771191  0.63372150    -0.10400
C970        C  0.70612448  0.73807570  0.64346709     0.08900
C971        C  0.75685476  0.76334103  0.62301446     0.09900
S972        S  0.75769650  0.72169916  0.59348441    -0.24700
H973        H  0.72326449  0.69800358  0.61087695     0.20200
S974        S  0.68680246  0.74531674  0.66351575    -0.30400
H975        H  0.72194506  0.76820494  0.64709491     0.10500
C976        C  0.75472002  0.78516474  0.61779491     0.03700
C977        C  0.77233499  0.79886445  0.62018124    -0.12700
C978        C  0.79200281  0.79106380  0.62740189    -0.08400
C979        C  0.79450204  0.76902997  0.63092626     0.07200
C980        C  0.77689705  0.75552329  0.62915657    -0.13500
S981        S  0.72958138  0.79565425  0.60848475    -0.30400
H982        H  0.77051655  0.81583172  0.61752175     0.11400
S983        S  0.81971507  0.75731189  0.63814846    -0.27500
H984        H  0.77873820  0.73880685  0.63311847     0.08600
H985        H  0.68773663  0.72568092  0.67431082     0.27100
H986        H  0.73669353  0.81662678  0.60483985     0.21900
H987        H  0.83250776  0.77296701  0.62839984     0.27200
H988        H  0.76177161  0.74272596  0.58681416     0.16000
C989        C  0.23869424  0.22769867  0.60816991    -0.11300
C990        C  0.24083877  0.24476796  0.62241875     0.15300
C991        C  0.22570630  0.24742293  0.63883795     0.02200
C992        C  0.20991811  0.23204574  0.64178386    -0.15600
C993        C  0.20850548  0.21403580  0.62853308    -0.10400
C994        C  0.22272835  0.21225989  0.61106680     0.08900
C995        C  0.26051194  0.25771720  0.62212908     0.09900
S996        S  0.22655093  0.26934238  0.65747288    -0.24700
H997        H  0.19888769  0.23394830  0.65496581     0.20200
S998        S  0.22264580  0.18990683  0.59311830    -0.30400
H999        H  0.25034543  0.22565623  0.59555906     0.10500
C1000       C  0.27649939  0.25410808  0.63743116     0.03700
C1001       C  0.29287974  0.26902300  0.63983597    -0.12700
C1002       C  0.29371800  0.28747577  0.62720858    -0.08400
C1003       C  0.27851781  0.29028336  0.61082274     0.07200
C1004       C  0.26215636  0.27521538  0.60831969    -0.13500
S1005       S  0.27552827  0.23091557  0.65452165    -0.30400
H1006       H  0.30475631  0.26668351  0.65212401     0.11400
S1007       S  0.27800063  0.31349043  0.59391092    -0.27500
H1008       H  0.24984140  0.27789871  0.59653291     0.08600
H1009       H  0.22151980  0.17469174  0.60953058     0.27100
H1010       H  0.29417680  0.23538080  0.66614570     0.21900
H1011       H  0.28233091  0.32813579  0.61031839     0.27200
H1012       H  0.23593034  0.28414250  0.64350942     0.16000
C1013       C  0.57093245  0.57529136  0.68195282    -0.11300
C1014       C  0.56816098  0.57538245  0.70409346     0.15300
C1015       C  0.58028421  0.58950427  0.71662148     0.02200
C1016       C  0.59526621  0.60279363  0.70686407    -0.15600
C1017       C  0.59848185  0.60270895  0.68461404    -0.10400
C1018       C  0.58595670  0.58860361  0.67208093     0.08900
C1019       C  0.55372322  0.55951173  0.71388284     0.09900
S1020       S  0.57739534  0.59134606  0.74517020    -0.24700
H1021       H  0.60434813  0.61347607  0.71693788     0.20200
S1022       S  0.58856966  0.58610521  0.64364061    -0.30400
H1023       H  0.56171395  0.56428654  0.67234136     0.10500
C1024       C  0.53137843  0.56140397  0.71248955     0.03700
C1025       C  0.51840361  0.54624421  0.72261981    -0.12700
C1026       C  0.52736799  0.52925699  0.73409024    -0.08400
C1027       C  0.54979407  0.52709969  0.73492112     0.07200
C1028       C  0.56269093  0.54235604  0.72501710    -0.13500
S1029       S  0.51943715  0.58364708  0.69869445    -0.30400
H1030       H  0.50121159  0.54787279  0.72208931     0.11400
S1031       S  0.56291726  0.50508146  0.74793567    -0.27500
H1032       H  0.57989313  0.54079995  0.72585979     0.08600
H1033       H  0.61069603  0.58238963  0.64453150     0.27100
H1034       H  0.49808613  0.57724652  0.70139530     0.21900
H1035       H  0.54675933  0.49002554  0.74396700     0.27200
H1036       H  0.55566295  0.58581765  0.74586303     0.16000
C1037       C  0.43306592  0.46069718  0.72742722    -0.11300
C1038       C  0.44106506  0.44776530  0.71105840     0.15300
C1039       C  0.46265834  0.44965269  0.70495361     0.02200
C1040       C  0.47607893  0.46335481  0.71625773    -0.15600
C1041       C  0.46831591  0.47585174  0.73313068    -0.10400
C1042       C  0.44634533  0.47495794  0.73829225     0.08900
C1043       C  0.42677162  0.43183898  0.70125117     0.09900
S1044       S  0.47413418  0.43473915  0.68318975    -0.24700
H1045       H  0.49283810  0.46406976  0.71200968     0.20200
S1046       S  0.43417354  0.49183354  0.75814205    -0.30400
H1047       H  0.41636359  0.45957410  0.73183108     0.10500
C1048       C  0.42923760  0.40990911  0.70534107     0.03700
C1049       C  0.41568222  0.39526170  0.69533173    -0.12700
C1050       C  0.39949263  0.40204867  0.68142417    -0.08400
C1051       C  0.39726097  0.42417351  0.67726368     0.07200
C1052       C  0.41069762  0.43877035  0.68745293    -0.13500
S1053       S  0.44914070  0.40062493  0.72394521    -0.30400
H1054       H  0.41735260  0.37845402  0.69883280     0.11400
S1055       S  0.37837062  0.43489453  0.65852601    -0.27500
H1056       H  0.40897902  0.45565098  0.68420783     0.08600
H1057       H  0.44797712  0.50925230  0.75500270     0.27100
H1058       H  0.44482954  0.37871106  0.72182214     0.21900
H1059       H  0.38182009  0.41878877  0.64330430     0.27200
H1060       H  0.45529026  0.43287989  0.67122603     0.16000
C1061       C  0.28816713  0.43715154  0.53130241    -0.11300
C1062       C  0.28379173  0.43819459  0.55319479     0.15300
C1063       C  0.26943025  0.45376344  0.56086609     0.02200
C1064       C  0.25999884  0.46799184  0.54657748    -0.15600
C1065       C  0.26419722  0.46683379  0.52464423    -0.10400
C1066       C  0.27829399  0.45102477  0.51693122     0.08900
C1067       C  0.29513942  0.42348178  0.56771279     0.09900
S1068       S  0.26236499  0.45621950  0.58861868    -0.24700
H1069       H  0.24916259  0.48005149  0.55260963     0.20200
S1070       S  0.28391217  0.44729939  0.48900389    -0.30400
H1071       H  0.29923747  0.42527123  0.52535505     0.10500
C1072       C  0.29164236  0.40127363  0.56715529     0.03700
C1073       C  0.30274164  0.38805299  0.58133907    -0.12700
C1074       C  0.31716390  0.39656992  0.59621765    -0.08400
C1075       C  0.32093147  0.41883018  0.59633460     0.07200
C1076       C  0.30983474  0.43197414  0.58221043    -0.13500
S1077       S  0.27221582  0.38985753  0.54922247    -0.30400
H1078       H  0.29960378  0.37107033  0.58135587     0.11400
S1079       S  0.34012873  0.43146517  0.61353154    -0.27500
H1080       H  0.31278661  0.44900482  0.58238773     0.08600
H1081       H  0.26358635  0.45338358  0.48177471     0.27100
H1082       H  0.27607022  0.36836857  0.55436156     0.21900
H1083       H  0.35512085  0.41483687  0.61213245     0.27200
H1084       H  0.26425568  0.43441579  0.59347417     0.16000
C1085       C  0.24864565  0.77827160  0.35313530    -0.11300
C1086       C  0.24417099  0.76101654  0.36658711     0.15300
C1087       C  0.22447046  0.76037779  0.37752375     0.02200
C1088       C  0.20940500  0.77649405  0.37406601    -0.15600
C1089       C  0.21359656  0.79353247  0.36013649    -0.10400
C1090       C  0.23355828  0.79430052  0.34952686     0.08900
C1091       C  0.25949962  0.74303970  0.36705708     0.09900
S1092       S  0.21739529  0.73920268  0.39565680    -0.24700
H1093       H  0.19421360  0.77569023  0.38232104     0.20200
S1094       S  0.24015826  0.81410399  0.32977823    -0.30400
H1095       H  0.26364063  0.77864361  0.34445710     0.10500
C1096       C  0.25515127  0.72385189  0.35622544     0.03700
C1097       C  0.27060752  0.70773548  0.35574757    -0.12700
C1098       C  0.29057094  0.71043188  0.36559689    -0.08400
C1099       C  0.29460474  0.72944785  0.37705020     0.07200
C1100       C  0.27915611  0.74563214  0.37742921    -0.13500
S1101       S  0.23047510  0.72034340  0.34176511    -0.30400
H1102       H  0.26750913  0.69340605  0.34678515     0.11400
S1103       S  0.31881142  0.73389375  0.39186741    -0.27500
H1104       H  0.28242347  0.76026558  0.38583171     0.08600
H1105       H  0.21998869  0.81381768  0.31996826     0.27100
H1106       H  0.23418071  0.69925563  0.33507354     0.21900
H1107       H  0.32148910  0.71242756  0.39780432     0.27200
H1108       H  0.23834971  0.73373986  0.40140760     0.16000
C1109       C  0.31721136  0.56415514  0.41756192    -0.11300
C1110       C  0.29827312  0.56947573  0.42814980     0.15300
C1111       C  0.28848774  0.58931061  0.42408655     0.02200
C1112       C  0.29778072  0.60330258  0.40944299    -0.15600
C1113       C  0.31671603  0.59805053  0.39862763    -0.10400
C1114       C  0.32633067  0.57801510  0.40262567     0.08900
C1115       C  0.28823472  0.55344213  0.44214315     0.09900
S1116       S  0.26370583  0.59742350  0.43633227    -0.24700
H1117       H  0.29011551  0.61850351  0.40651137     0.20200
S1118       S  0.34911217  0.56837748  0.38806395    -0.30400
H1119       H  0.32444787  0.54871385  0.42033002     0.10500
C1120       C  0.27250800  0.53946785  0.43432458     0.03700
C1121       C  0.26219263  0.52552981  0.44841062    -0.12700
C1122       C  0.26711307  0.52545412  0.47023320    -0.08400
C1123       C  0.28307726  0.53943172  0.47795076     0.07200
C1124       C  0.29375336  0.55293545  0.46374084    -0.13500
S1125       S  0.26543695  0.53961151  0.40644723    -0.30400
H1126       H  0.25008433  0.51473064  0.44248080     0.11400
S1127       S  0.28961921  0.54186758  0.50579593    -0.27500
H1128       H  0.30575225  0.56386156  0.46970616     0.08600
H1129       H  0.34164914  0.57575430  0.36827398     0.27100
H1130       H  0.24967869  0.52366580  0.40762751     0.21900
H1131       H  0.26875046  0.53835290  0.51328191     0.27200
H1132       H  0.26587942  0.58569621  0.45523117     0.16000
C1133       C  0.55405971  0.71026344  0.53712549    -0.11300
C1134       C  0.55172157  0.71194066  0.55926254     0.15300
C1135       C  0.53471457  0.72406315  0.56776161     0.02200
C1136       C  0.52061962  0.73436835  0.55389625    -0.15600
C1137       C  0.52314518  0.73294595  0.53174201    -0.10400
C1138       C  0.54005786  0.72068768  0.52328935     0.08900
C1139       C  0.56809431  0.70199460  0.57291405     0.09900
S1140       S  0.52986822  0.72694076  0.59597992    -0.24700
H1141       H  0.50755751  0.74364267  0.56042735     0.20200
S1142       S  0.54497777  0.71815692  0.49509046    -0.30400
H1143       H  0.56719360  0.70109822  0.53059212     0.10500
C1144       C  0.56488470  0.68207491  0.58275879     0.03700
C1145       C  0.58073422  0.67384623  0.59624619    -0.12700
C1146       C  0.59976452  0.68515270  0.59994652    -0.08400
C1147       C  0.60329332  0.70460510  0.58903277     0.07200
C1148       C  0.58735136  0.71288970  0.57591511    -0.13500
S1149       S  0.54052738  0.66735437  0.57832932    -0.30400
H1150       H  0.57803040  0.65889063  0.60443212     0.11400
S1151       S  0.62799314  0.71932100  0.59051607    -0.27500
H1152       H  0.58997997  0.72796994  0.56789583     0.08600
H1153       H  0.53755801  0.73854772  0.48949517     0.27100
H1154       H  0.54625038  0.64919643  0.59016006     0.21900
H1155       H  0.64109786  0.70113422  0.59146530     0.27200
H1156       H  0.55060218  0.72259222  0.60315840     0.16000
C1157       C  0.43121862  0.72202542  0.46152038    -0.11300
C1158       C  0.44096006  0.70812007  0.44696241     0.15300
C1159       C  0.46328449  0.70523947  0.44768066     0.02200
C1160       C  0.47538986  0.71679628  0.46241605    -0.15600
C1161       C  0.46571956  0.73097420  0.47680669    -0.10400
C1162       C  0.44326350  0.73318957  0.47662542     0.08900
C1163       C  0.42755287  0.69782616  0.43049621     0.09900
S1164       S  0.47729116  0.68728164  0.43011100    -0.24700
H1165       H  0.49258558  0.71486816  0.46252447     0.20200
S1166       S  0.42897129  0.74954720  0.49547421    -0.30400
H1167       H  0.41405495  0.72416145  0.46110796     0.10500
C1168       C  0.41349470  0.68098590  0.43547826     0.03700
C1169       C  0.40059508  0.67223684  0.41940427    -0.12700
C1170       C  0.40132106  0.68018855  0.39850311    -0.08400
C1171       C  0.41594160  0.69664812  0.39349724     0.07200
C1172       C  0.42873556  0.70535408  0.40953057    -0.13500
S1173       S  0.41200973  0.67070020  0.46229639    -0.30400
H1174       H  0.38941969  0.65962735  0.42324392     0.11400
S1175       S  0.41941658  0.70692807  0.36691243    -0.27500
H1176       H  0.43972964  0.71813574  0.40565305     0.08600
H1177       H  0.44333898  0.74658464  0.51239414     0.27100
H1178       H  0.39694645  0.65459104  0.45814419     0.21900
H1179       H  0.41520186  0.68751776  0.35649263     0.27200
H1180       H  0.46037374  0.67283805  0.42726051     0.16000
C1181       C  0.46807264  0.28528061  0.55859220    -0.11300
C1182       C  0.44633283  0.28013171  0.55968602     0.15300
C1183       C  0.43790228  0.26468399  0.54567979     0.02200
C1184       C  0.45118168  0.25533125  0.53041367    -0.15600
C1185       C  0.47294280  0.26059737  0.52908607    -0.10400
C1186       C  0.48153044  0.27544474  0.54374752     0.08900
C1187       C  0.43254138  0.29212948  0.57456235     0.09900
S1188       S  0.41034708  0.25633437  0.54638921    -0.24700
H1189       H  0.44444410  0.24385127  0.51939345     0.20200
S1190       S  0.50950310  0.28211797  0.54483244    -0.30400
H1191       H  0.47459774  0.29704249  0.56944169     0.10500
C1192       C  0.43321421  0.28867486  0.59671077     0.03700
C1193       C  0.41922582  0.30000769  0.61000053    -0.12700
C1194       C  0.40457642  0.31473592  0.60157450    -0.08400
C1195       C  0.40470890  0.31879156  0.57941144     0.07200
C1196       C  0.41844550  0.30726289  0.56618487    -0.13500
S1197       S  0.45109939  0.26909459  0.60790502    -0.30400
H1198       H  0.41916213  0.29681442  0.62694411     0.11400
S1199       S  0.38833545  0.33889552  0.56704874    -0.27500
H1200       H  0.41828184  0.31020724  0.54917935     0.08600
H1201       H  0.51686516  0.26181813  0.53877898     0.27100
H1202       H  0.44500596  0.27188626  0.62929270     0.21900
H1203       H  0.38967614  0.35336840  0.58412539     0.27200
H1204       H  0.40716897  0.25993425  0.56825917     0.16000
C1205       C  0.74145610  0.28015770  0.39379816    -0.11300
C1206       C  0.73899792  0.25962658  0.38527300     0.15300
C1207       C  0.71955791  0.25403771  0.37543182     0.02200
C1208       C  0.70346139  0.26929220  0.37342982    -0.15600
C1209       C  0.70652873  0.29040955  0.38028939    -0.10400
C1210       C  0.72543530  0.29555811  0.39153840     0.08900
C1211       C  0.75749415  0.24498703  0.38491884     0.09900
S1212       S  0.71489843  0.22822872  0.36359535    -0.24700
H1213       H  0.68909503  0.26499191  0.36485387     0.20200
S1214       S  0.73022352  0.32139779  0.40321694    -0.30400
H1215       H  0.75624815  0.28439127  0.40166710     0.10500
C1216       C  0.77440828  0.24848307  0.37053966     0.03700
C1217       C  0.79016763  0.23289292  0.36817768    -0.12700
C1218       C  0.78920766  0.21356151  0.37945403    -0.08400
C1219       C  0.77242481  0.21023414  0.39414304     0.07200
C1220       C  0.75698900  0.22616943  0.39703168    -0.13500
S1221       S  0.77500933  0.27197167  0.35382632    -0.30400
H1222       H  0.80294832  0.23540964  0.35682581     0.11400
S1223       S  0.76860144  0.18536672  0.40799634    -0.27500
H1224       H  0.74375020  0.22333648  0.40777958     0.08600
H1225       H  0.70870321  0.32522029  0.40836745     0.27100
H1226       H  0.79405342  0.26717527  0.34296125     0.21900
H1227       H  0.77400946  0.17242322  0.39050098     0.27200
H1228       H  0.73557684  0.22569546  0.35526938     0.16000
C1229       C  0.56480610  0.29448166  0.40339731    -0.11300
C1230       C  0.56348012  0.30131323  0.42458854     0.15300
C1231       C  0.57647143  0.31836839  0.43149792     0.02200
C1232       C  0.59119049  0.32753052  0.41737006    -0.15600
C1233       C  0.59321586  0.32008260  0.39638308    -0.10400
C1234       C  0.57928264  0.30381570  0.38918903     0.08900
C1235       C  0.54973892  0.28918101  0.43947862     0.09900
S1236       S  0.57574680  0.32842612  0.45839061    -0.24700
H1237       H  0.60169868  0.34002826  0.42305603     0.20200
S1238       S  0.57898830  0.29437177  0.36207889    -0.30400
H1239       H  0.55467005  0.28155286  0.39797352     0.10500
C1240       C  0.52771048  0.29322276  0.44129712     0.03700
C1241       C  0.51539873  0.28114730  0.45561418    -0.12700
C1242       C  0.52470433  0.26506868  0.46812564    -0.08400
C1243       C  0.54692522  0.26138003  0.46646507     0.07200
C1244       C  0.55907911  0.27325261  0.45199967    -0.13500
S1245       S  0.51543173  0.31395005  0.42559358    -0.30400
H1246       H  0.49841489  0.28403048  0.45692382     0.11400
S1247       S  0.56091106  0.24236598  0.48285487    -0.27500
H1248       H  0.57607199  0.27028909  0.45070440     0.08600
H1249       H  0.58453994  0.31406798  0.35287729     0.27100
H1250       H  0.49460862  0.31126977  0.43354832     0.21900
H1251       H  0.54796975  0.24513448  0.50096101     0.27200
H1252       H  0.55421480  0.32359479  0.46236612     0.16000
C1253       C  0.71122684  0.59408743  0.57459406    -0.11300
C1254       C  0.70223922  0.57366041  0.57321390     0.15300
C1255       C  0.68412593  0.56871932  0.58568295     0.02200
C1256       C  0.67563912  0.58418132  0.59942348    -0.15600
C1257       C  0.68470873  0.60463640  0.60097763    -0.10400
C1258       C  0.70257628  0.60965134  0.58805764     0.08900
C1259       C  0.71241156  0.55790751  0.55881789     0.09900
S1260       S  0.67130538  0.54295417  0.58509053    -0.24700
H1261       H  0.66198423  0.58008621  0.60922088     0.20200
S1262       S  0.71464627  0.63576254  0.58732179    -0.30400
H1263       H  0.72500919  0.59799809  0.56489066     0.10500
C1264       C  0.70923082  0.55866219  0.53661934     0.03700
C1265       C  0.71997135  0.54410698  0.52342162    -0.12700
C1266       C  0.73394958  0.52885669  0.53196842    -0.08400
C1267       C  0.73660115  0.52776529  0.55430879     0.07200
C1268       C  0.72596399  0.54238461  0.56743891    -0.13500
S1269       S  0.69152627  0.57823265  0.52514784    -0.30400
H1270       H  0.71790113  0.54489545  0.50632522     0.11400
S1271       S  0.75306225  0.50794965  0.56704302    -0.27500
H1272       H  0.72827456  0.54169191  0.58452247     0.08600
H1273       H  0.69527505  0.64694736  0.58912113     0.27100
H1274       H  0.69358962  0.57145248  0.50389290     0.21900
H1275       H  0.74969672  0.49190542  0.55175444     0.27200
H1276       H  0.67694852  0.53763777  0.56409615     0.16000
C1277       C  0.71095334  0.44496259  0.46623586    -0.11300
C1278       C  0.71360546  0.44811556  0.44429742     0.15300
C1279       C  0.72715926  0.46460027  0.43703331     0.02200
C1280       C  0.73792758  0.47734575  0.45184549    -0.15600
C1281       C  0.73536095  0.47415787  0.47382696    -0.10400
C1282       C  0.72189205  0.45756244  0.48104557     0.08900
C1283       C  0.70363301  0.43268856  0.42951349     0.09900
S1284       S  0.73176464  0.46983985  0.40915135    -0.24700
H1285       H  0.74827947  0.49000696  0.44618724     0.20200
S1286       S  0.71891179  0.45090418  0.50882559    -0.30400
H1287       H  0.70091242  0.43202905  0.47184208     0.10500
C1288       C  0.71552701  0.41578668  0.42084761     0.03700
C1289       C  0.70558668  0.40127847  0.40711941    -0.12700
C1290       C  0.68393530  0.40338371  0.40140275    -0.08400
C1291       C  0.67220289  0.42079357  0.40986807     0.07200
C1292       C  0.68205394  0.43491064  0.42414199    -0.13500
S1293       S  0.74334888  0.41244111  0.42759499    -0.30400
H1294       H  0.71482279  0.38807716  0.40095823     0.11400
S1295       S  0.64510613  0.42667158  0.40243089    -0.27500
H1296       H  0.67301258  0.44810766  0.43065616     0.08600
H1297       H  0.73979404  0.45655820  0.51476195     0.27100
H1298       H  0.74768442  0.39592451  0.41306043     0.21900
H1299       H  0.64906539  0.42424554  0.38050595     0.27200
H1300       H  0.71192108  0.46240831  0.40186726     0.16000
C1301       C  0.43642842  0.53842778  0.27131558    -0.11300
C1302       C  0.44456377  0.55369658  0.28545935     0.15300
C1303       C  0.46674105  0.55451151  0.28930292     0.02200
C1304       C  0.48031486  0.54053967  0.27838895    -0.15600
C1305       C  0.47225400  0.52551738  0.26389540    -0.10400
C1306       C  0.44995425  0.52417343  0.26072432     0.08900
C1307       C  0.42954373  0.56902962  0.29523578     0.09900
S1308       S  0.47883729  0.57346677  0.30723919    -0.24700
H1309       H  0.49738207  0.54162717  0.28095416     0.20200
S1310       S  0.43773837  0.50445359  0.24371678    -0.30400
H1311       H  0.41938058  0.53763948  0.26850657     0.10500
C1312       C  0.42532186  0.58885749  0.28564634     0.03700
C1313       C  0.41043248  0.60267426  0.29502634    -0.12700
C1314       C  0.39972153  0.59716734  0.31395141    -0.08400
C1315       C  0.40403391  0.57714755  0.32344450     0.07200
C1316       C  0.41889003  0.56337453  0.31402818    -0.13500
S1317       S  0.43884887  0.59647756  0.26139032    -0.30400
H1318       H  0.40723829  0.61795212  0.28767330     0.11400
S1319       S  0.39040008  0.56769396  0.34684399    -0.27500
H1320       H  0.42199622  0.54799115  0.32124060     0.08600
H1321       H  0.45315265  0.48853793  0.24713640     0.27100
H1322       H  0.42961766  0.61682653  0.25949392     0.21900
H1323       H  0.37034940  0.57544077  0.34047434     0.27200
H1324       H  0.46110497  0.57643676  0.32058885     0.16000
C1325       C  0.56700064  0.45922876  0.27130100    -0.11300
C1326       C  0.55855711  0.44380131  0.28509563     0.15300
C1327       C  0.53624812  0.44251270  0.28799656     0.02200
C1328       C  0.52291223  0.45648290  0.27684349    -0.15600
C1329       C  0.53132176  0.47192879  0.26297285    -0.10400
C1330       C  0.55369866  0.47338243  0.26035805     0.08900
C1331       C  0.57347135  0.42892726  0.29565157     0.09900
S1332       S  0.52378297  0.42316570  0.30527913    -0.24700
H1333       H  0.50578494  0.45521324  0.27888928     0.20200
S1334       S  0.56633330  0.49313289  0.24368374    -0.30400
H1335       H  0.58412445  0.46026008  0.26908558     0.10500
C1336       C  0.57669435  0.40815773  0.28779057     0.03700
C1337       C  0.59140303  0.39475099  0.29791038    -0.12700
C1338       C  0.60305060  0.40167725  0.31573857    -0.08400
C1339       C  0.59997600  0.42267227  0.32337762     0.07200
C1340       C  0.58512415  0.43598582  0.31335366    -0.13500
S1341       S  0.56236822  0.39888839  0.26461980    -0.30400
H1342       H  0.59379377  0.37871686  0.29197312     0.11400
S1343       S  0.61523199  0.43381767  0.34499382    -0.27500
H1344       H  0.58286456  0.45210164  0.31915678     0.08600
H1345       H  0.55110094  0.50919723  0.24724807     0.27100
H1346       H  0.57114952  0.37825790  0.26409146     0.21900
H1347       H  0.63442705  0.42355992  0.33952193     0.27200
H1348       H  0.54087500  0.42099317  0.31955511     0.16000
C1349       C  0.74942835  0.13454657  0.22847639    -0.11300
C1350       C  0.74245298  0.12566996  0.24776609     0.15300
C1351       C  0.72113071  0.11857274  0.24949380     0.02200
C1352       C  0.70717708  0.12129689  0.23231751    -0.15600
C1353       C  0.71394663  0.13073096  0.21311204    -0.10400
C1354       C  0.73557651  0.13716193  0.21123485     0.08900
C1355       C  0.75713993  0.12637810  0.26630190     0.09900
S1356       S  0.71066844  0.10610928  0.27320796    -0.24700
H1357       H  0.69077777  0.11609445  0.23407815     0.20200
S1358       S  0.74636759  0.15028652  0.18807006    -0.30400
H1359       H  0.76564013  0.14043726  0.22716556     0.10500
C1360       C  0.77729802  0.11632292  0.26590315     0.03700
C1361       C  0.79163381  0.11969427  0.28274350    -0.12700
C1362       C  0.78621826  0.13295777  0.29989627    -0.08400
C1363       C  0.76559949  0.14196392  0.30087071     0.07200
C1364       C  0.75144376  0.13884533  0.28398219    -0.13500
S1365       S  0.78486888  0.09937461  0.24389002    -0.30400
H1366       H  0.80742974  0.11273741  0.28214359     0.11400
S1367       S  0.75647248  0.15764679  0.32320505    -0.27500
H1368       H  0.73598297  0.14656145  0.28443076     0.08600
H1369       H  0.73014062  0.16577255  0.18736077     0.27100
H1370       H  0.80565581  0.09484821  0.25097374     0.21900
H1371       H  0.76904451  0.14726501  0.33857305     0.27200
H1372       H  0.73017115  0.09744468  0.28005389     0.16000
C1373       C  0.62695684  0.24456580  0.22312665    -0.11300
C1374       C  0.63604475  0.24120615  0.24323527     0.15300
C1375       C  0.64506183  0.22118443  0.24806104     0.02200
C1376       C  0.64514498  0.20516383  0.23260424    -0.15600
C1377       C  0.63689123  0.20872113  0.21209005    -0.10400
C1378       C  0.62716636  0.22858110  0.20757177     0.08900
C1379       C  0.63592657  0.25884517  0.25885195     0.09900
S1380       S  0.65752108  0.21532424  0.27328342    -0.24700
H1381       H  0.65275062  0.19011271  0.23636546     0.20200
S1382       S  0.61431026  0.23444653  0.18259923    -0.30400
H1383       H  0.61964413  0.25980444  0.21954448     0.10500
C1384       C  0.64867287  0.27711799  0.25582812     0.03700
C1385       C  0.64894387  0.29298834  0.27151915    -0.12700
C1386       C  0.63690881  0.29089388  0.29030175    -0.08400
C1387       C  0.62355376  0.27290816  0.29288446     0.07200
C1388       C  0.62332659  0.25702962  0.27723155    -0.13500
S1389       S  0.66557759  0.27965865  0.23261305    -0.30400
H1390       H  0.65927738  0.30669816  0.26955687     0.11400
S1391       S  0.60602756  0.26958832  0.31539005    -0.27500
H1392       H  0.61328465  0.24311595  0.27937554     0.08600
H1393       H  0.60579277  0.21384002  0.17997441     0.27100
H1394       H  0.67477253  0.29939509  0.23803667     0.21900
H1395       H  0.60150670  0.29145561  0.31756175     0.27200
H1396       H  0.66538755  0.23599412  0.27699466     0.16000
C1397       C  0.24328398  0.87895625  0.26973318    -0.11300
C1398       C  0.23546027  0.88302783  0.24927478     0.15300
C1399       C  0.21325764  0.88520639  0.24628256     0.02200
C1400       C  0.19939882  0.88174648  0.26345475    -0.15600
C1401       C  0.20713418  0.87648922  0.28385534    -0.10400
C1402       C  0.22957635  0.87610633  0.28703821     0.08900
C1403       C  0.25062937  0.88128346  0.23124036     0.09900
S1404       S  0.20161718  0.89161307  0.22081682    -0.24700
H1405       H  0.18238663  0.88264292  0.26063853     0.20200
S1406       S  0.24216716  0.87069910  0.31222507    -0.30400
H1407       H  0.26029387  0.87708984  0.27210268     0.10500
C1408       C  0.26898142  0.89425637  0.22967487     0.03700
C1409       C  0.28480875  0.88921349  0.21463036    -0.12700
C1410       C  0.28255737  0.87150475  0.20110720    -0.08400
C1411       C  0.26329322  0.85970017  0.20158835     0.07200
C1412       C  0.24784707  0.86443205  0.21686950    -0.13500
S1413       S  0.27237230  0.91697483  0.24704132    -0.30400
H1414       H  0.29936490  0.89851873  0.21402319     0.11400
S1415       S  0.25729416  0.83844966  0.18314422    -0.27500
H1416       H  0.23370854  0.85450419  0.21791433     0.08600
H1417       H  0.23169074  0.88761653  0.32260985     0.27100
H1418       H  0.29231389  0.92349333  0.23904685     0.21900
H1419       H  0.26768925  0.84800008  0.16569848     0.27200
H1420       H  0.21958569  0.90229368  0.21263775     0.16000
C1421       C  0.38885911  0.76439103  0.22871343    -0.11300
C1422       C  0.37225763  0.75946035  0.24287097     0.15300
C1423       C  0.35364448  0.77202402  0.24290778     0.02200
C1424       C  0.35135076  0.78816648  0.22785099    -0.15600
C1425       C  0.36734353  0.79253950  0.21268466    -0.10400
C1426       C  0.38677123  0.78098399  0.21384805     0.08900
C1427       C  0.37382002  0.74035104  0.25651663     0.09900
S1428       S  0.33165695  0.76753070  0.26098611    -0.24700
H1429       H  0.33656278  0.79709134  0.22775639     0.20200
S1430       S  0.40899200  0.78568612  0.19628951    -0.30400
H1431       H  0.40330198  0.75491949  0.22890688     0.10500
C1432       C  0.36236948  0.72168443  0.25150757     0.03700
C1433       C  0.36095159  0.70527594  0.26657616    -0.12700
C1434       C  0.37071601  0.70716713  0.28663124    -0.08400
C1435       C  0.38368328  0.72519876  0.29080985     0.07200
C1436       C  0.38495629  0.74164767  0.27578317    -0.13500
S1437       S  0.34868953  0.71924586  0.22630669    -0.30400
H1438       H  0.35118463  0.69145483  0.26315244     0.11400
S1439       S  0.39893890  0.72824469  0.31490536    -0.27500
H1440       H  0.39405346  0.75587928  0.27943484     0.08600
H1441       H  0.41050750  0.80740016  0.20177954     0.27100
H1442       H  0.34078974  0.69848702  0.22951469     0.21900
H1443       H  0.40337258  0.70636442  0.31714031     0.27200
H1444       H  0.34388211  0.75968865  0.27799114     0.16000
C1445       C  0.25237958  0.13674102  0.77680880    -0.11300
C1446       C  0.25817640  0.12483426  0.75885886     0.15300
C1447       C  0.27896996  0.11634382  0.75744187     0.02200
C1448       C  0.29377720  0.12073397  0.77357817    -0.15600
C1449       C  0.28825956  0.13343841  0.79120551    -0.10400
C1450       C  0.26718211  0.14146600  0.79273474     0.08900
C1451       C  0.24354674  0.12533451  0.74042844     0.09900
S1452       S  0.28767856  0.10045466  0.73512646    -0.24700
H1453       H  0.30980804  0.11440986  0.77221843     0.20200
S1454       S  0.25867283  0.15975917  0.81322663    -0.30400
H1455       H  0.23659310  0.14374879  0.77763787     0.10500
C1456       C  0.22446443  0.11345038  0.73991577     0.03700
C1457       C  0.20963836  0.11715221  0.72354528    -0.12700
C1458       C  0.21345941  0.13281079  0.70799047    -0.08400
C1459       C  0.23314285  0.14389032  0.70805380     0.07200
C1460       C  0.24783971  0.14009886  0.72427477    -0.13500
S1461       S  0.21887393  0.09402117  0.76037796    -0.30400
H1462       H  0.19462621  0.10859084  0.72342798     0.11400
S1463       S  0.24046255  0.16323247  0.68804305    -0.27500
H1464       H  0.26254078  0.14921723  0.72468126     0.08600
H1465       H  0.27725515  0.17235348  0.81228760     0.27100
H1466       H  0.19835834  0.08845390  0.75320569     0.21900
H1467       H  0.22985445  0.15293510  0.67119540     0.27200
H1468       H  0.26732532  0.09303194  0.72932621     0.16000
C1469       C  0.36427534  0.25385406  0.72459686    -0.11300
C1470       C  0.37737367  0.25894565  0.74190128     0.15300
C1471       C  0.38909223  0.27821733  0.74163711     0.02200
C1472       C  0.38610643  0.29270153  0.72486295    -0.15600
C1473       C  0.37187172  0.28815009  0.70822205    -0.10400
C1474       C  0.36159263  0.26804905  0.70770865     0.08900
C1475       C  0.37684751  0.24444416  0.76048506     0.09900
S1476       S  0.40732557  0.28554973  0.76258894    -0.24700
H1477       H  0.39423429  0.30795969  0.72527596     0.20200
S1478       S  0.34462294  0.25960076  0.68607742    -0.30400
H1479       H  0.35558449  0.23888885  0.72453367     0.10500
C1480       C  0.36521592  0.24971069  0.77897874     0.03700
C1481       C  0.36234787  0.23429258  0.79489986    -0.12700
C1482       C  0.37078498  0.21363774  0.79268889    -0.08400
C1483       C  0.38359344  0.20891312  0.77472827     0.07200
C1484       C  0.38613678  0.22419718  0.75868263    -0.13500
S1485       S  0.35257699  0.27547258  0.78160746    -0.30400
H1486       H  0.35250791  0.23800272  0.80858809     0.11400
S1487       S  0.39735689  0.18387949  0.77146714    -0.27500
H1488       H  0.39525106  0.22023226  0.74456098     0.08600
H1489       H  0.35571663  0.27084731  0.67014278     0.27100
H1490       H  0.34611071  0.27306659  0.80293447     0.21900
H1491       H  0.40165597  0.18112124  0.79328397     0.27200
H1492       H  0.41205009  0.26465621  0.76916158     0.16000
C1493       C  0.43327070  0.04049190  0.77446208    -0.11300
C1494       C  0.44175101  0.05627217  0.78785049     0.15300
C1495       C  0.46405877  0.05731375  0.79088441     0.02200
C1496       C  0.47736143  0.04322666  0.77979575    -0.15600
C1497       C  0.46894220  0.02776200  0.76597440    -0.10400
C1498       C  0.44655844  0.02610114  0.76371024     0.08900
C1499       C  0.42696585  0.07188447  0.79768815     0.09900
S1500       S  0.47657131  0.07646415  0.80831561    -0.24700
H1501       H  0.49450322  0.04450017  0.78176920     0.20200
S1502       S  0.43396137  0.00581073  0.74769643    -0.30400
H1503       H  0.41613958  0.03945986  0.77229875     0.10500
C1504       C  0.42540782  0.09291960  0.78995733     0.03700
C1505       C  0.41097847  0.10711711  0.79948611    -0.12700
C1506       C  0.39788920  0.10072817  0.81652656    -0.08400
C1507       C  0.39914614  0.07944328  0.82389241     0.07200
C1508       C  0.41378712  0.06535542  0.81454781    -0.13500
S1509       S  0.44139025  0.10152820  0.76757793    -0.30400
H1510       H  0.40989476  0.12333283  0.79367447     0.11400
S1511       S  0.38173151  0.06892917  0.84421306    -0.27500
H1512       H  0.41468203  0.04905836  0.82020915     0.08600
H1513       H  0.44972836  0.99019452  0.75088058     0.27100
H1514       H  0.43347333  0.12248586  0.76653408     0.21900
H1515       H  0.36364184  0.08046945  0.83770161     0.27200
H1516       H  0.45929496  0.07874821  0.82241500     0.16000
C1517       C  0.74861426  0.86303565  0.78221575    -0.11300
C1518       C  0.74375720  0.87332078  0.76300360     0.15300
C1519       C  0.72332470  0.88239878  0.76020924     0.02200
C1520       C  0.70784077  0.87984233  0.77609281    -0.15600
C1521       C  0.71237314  0.86846711  0.79474818    -0.10400
C1522       C  0.73323505  0.86071891  0.79818354     0.08900
C1523       C  0.75928580  0.87176198  0.74531378     0.09900
S1524       S  0.71579204  0.89653165  0.73637591    -0.24700
H1525       H  0.69186689  0.88590606  0.77344355     0.20200
S1526       S  0.74103610  0.84735410  0.82239336    -0.30400
H1527       H  0.76429742  0.85610899  0.78447866     0.10500
C1528       C  0.77929228  0.88203317  0.74599416     0.03700
C1529       C  0.79400432  0.87860083  0.72946257    -0.12700
C1530       C  0.78918925  0.86478425  0.71254385    -0.08400
C1531       C  0.76885091  0.85510003  0.71159194     0.07200
C1532       C  0.75423829  0.85855776  0.72802845    -0.13500
S1533       S  0.78609811  0.89935998  0.76793029    -0.30400
H1534       H  0.80957961  0.88606792  0.73007363     0.11400
S1535       S  0.76050057  0.83833532  0.68976998    -0.27500
H1536       H  0.73883859  0.85068444  0.72748303     0.08600
H1537       H  0.72648134  0.85802298  0.83572224     0.27100
H1538       H  0.80735143  0.90317269  0.76177286     0.21900
H1539       H  0.77226454  0.84918043  0.67403856     0.27200
H1540       H  0.73645460  0.90349552  0.73105946     0.16000
C1541       C  0.62893297  0.77973159  0.75168337    -0.11300
C1542       C  0.61520421  0.76279912  0.75675992     0.15300
C1543       C  0.60461303  0.76278181  0.77664921     0.02200
C1544       C  0.60910354  0.77890978  0.79146943    -0.15600
C1545       C  0.62384152  0.79511740  0.78674067    -0.10400
C1546       C  0.63308409  0.79598925  0.76625980     0.08900
C1547       C  0.61517994  0.74416956  0.74224816     0.09900
S1548       S  0.58589361  0.74229108  0.78427306    -0.24700
H1549       H  0.60178554  0.77827297  0.80710697     0.20200
S1550       S  0.65061551  0.81723312  0.75788488    -0.30400
H1551       H  0.63712995  0.77987787  0.73647012     0.10500
C1552       C  0.60933720  0.74611184  0.72068799     0.03700
C1553       C  0.61434872  0.72965025  0.70641739    -0.12700
C1554       C  0.62541346  0.71132566  0.71313772    -0.08400
C1555       C  0.63032476  0.70909248  0.73508137     0.07200
C1556       C  0.62483576  0.72532878  0.74932035    -0.13500
S1557       S  0.59592837  0.76979154  0.71127604    -0.30400
H1558       H  0.61013084  0.73135132  0.68979808     0.11400
S1559       S  0.64550875  0.68720408  0.74583030    -0.27500
H1560       H  0.62967620  0.72398165  0.76582965     0.08600
H1561       H  0.64118998  0.83307486  0.77066486     0.27100
H1562       H  0.59536750  0.76409411  0.68961904     0.21900
H1563       H  0.66207271  0.68923682  0.73079742     0.27200
H1564       H  0.57994441  0.73660771  0.76344982     0.16000
C1565       C  0.56436764  0.91896719  0.81257953    -0.11300
C1566       C  0.57247275  0.93370278  0.79787001     0.15300
C1567       C  0.59463622  0.93438754  0.79395232     0.02200
C1568       C  0.60806207  0.91982144  0.80418270    -0.15600
C1569       C  0.59987772  0.90427169  0.81811970    -0.10400
C1570       C  0.57779673  0.90449859  0.82293941     0.08900
C1571       C  0.55737618  0.94791983  0.78666810     0.09900
S1572       S  0.60669813  0.95300415  0.77563297    -0.24700
H1573       H  0.62494779  0.92007766  0.80047630     0.20200
S1574       S  0.56582493  0.88743670  0.84269364    -0.30400
H1575       H  0.54742584  0.91879819  0.81603962     0.10500
C1576       C  0.54418967  0.94008222  0.77028872     0.03700
C1577       C  0.53041294  0.95407405  0.75966020    -0.12700
C1578       C  0.52953187  0.97581494  0.76502018    -0.08400
C1579       C  0.54295096  0.98363416  0.78139663     0.07200
C1580       C  0.55652678  0.96956748  0.79215181    -0.13500
S1581       S  0.54526117  0.91232599  0.76261278    -0.30400
H1582       H  0.52011204  0.94804966  0.74720094     0.11400
S1583       S  0.54416498  0.01139717  0.78883857    -0.27500
H1584       H  0.56681470  0.97559190  0.80464480     0.08600
H1585       H  0.58329778  0.88836871  0.85671156     0.27100
H1586       H  0.52942120  0.91330446  0.74680257     0.21900
H1587       H  0.54002695  0.01942103  0.76835218     0.27200
H1588       H  0.58956240  0.95370065  0.76124218     0.16000
C1589       C  0.71090789  0.06739268  0.09319694    -0.11300
C1590       C  0.70141066  0.06574198  0.07309610     0.15300
C1591       C  0.68310352  0.07796793  0.06843058     0.02200
C1592       C  0.67515366  0.09208858  0.08378144    -0.15600
C1593       C  0.68499001  0.09415850  0.10376929    -0.10400
C1594       C  0.70283001  0.08125836  0.10861652     0.08900
C1595       C  0.71156621  0.05151115  0.05736634     0.09900
S1596       S  0.66953835  0.07673687  0.04313029    -0.24700
H1597       H  0.66143936  0.10186695  0.07992480     0.20200
S1598       S  0.71571670  0.08128015  0.13427548    -0.30400
H1599       H  0.72481027  0.05780113  0.09686959     0.10500
C1600       C  0.72476945  0.05964687  0.04111030     0.03700
C1601       C  0.73565504  0.04544784  0.02772981    -0.12700
C1602       C  0.73367002  0.02332020  0.03040834    -0.08400
C1603       C  0.72041826  0.01522831  0.04673706     0.07200
C1604       C  0.70939657  0.02941467  0.05992267    -0.13500
S1605       S  0.72830843  0.08805840  0.03789441    -0.30400
H1606       H  0.74587252  0.05152663  0.01519604     0.11400
S1607       S  0.71758160  0.98710250  0.05213084    -0.27500
H1608       H  0.69948583  0.02321777  0.07266423     0.08600
H1609       H  0.69682359  0.08417058  0.14605065     0.27100
H1610       H  0.74238181  0.08703123  0.02045623     0.21900
H1611       H  0.73838471  0.98135688  0.04600561     0.27200
H1612       H  0.67568690  0.05586962  0.03778529     0.16000
C1613       C  0.68651745  0.91396696  0.93596227    -0.11300
C1614       C  0.70296674  0.92728931  0.92870476     0.15300
C1615       C  0.70883029  0.92679546  0.90699946     0.02200
C1616       C  0.69783962  0.91338097  0.89301665    -0.15600
C1617       C  0.68153963  0.89977489  0.90026340    -0.10400
C1618       C  0.67564398  0.90037790  0.92201641     0.08900
C1619       C  0.71360571  0.94151716  0.94418957     0.09900
S1620       S  0.73060757  0.94229956  0.89625934    -0.24700
H1621       H  0.70270850  0.91292519  0.87645562     0.20200
S1622       S  0.65394257  0.88491350  0.93287146    -0.30400
H1623       H  0.68189705  0.91442341  0.95259397     0.10500
C1624       C  0.71091387  0.96383015  0.94353902     0.03700
C1625       C  0.72176627  0.97662644  0.95829573    -0.12700
C1626       C  0.73491192  0.96752088  0.97391602    -0.08400
C1627       C  0.73678393  0.94511175  0.97510872     0.07200
C1628       C  0.72636406  0.93239022  0.96007490    -0.13500
S1629       S  0.69325028  0.97594996  0.92432683    -0.30400
H1630       H  0.72011629  0.99380264  0.95767320     0.11400
S1631       S  0.75160429  0.93179931  0.99579422    -0.27500
H1632       H  0.72805039  0.91520844  0.96085143     0.08600
H1633       H  0.64080808  0.88698905  0.91483992     0.27100
H1634       H  0.69681652  0.99723081  0.93046386     0.21900
H1635       H  0.74762254  0.94710320  0.01168717     0.27200
H1636       H  0.74294172  0.94257780  0.91492949     0.16000
C1637       C  0.31297829  0.91369084  0.06196983    -0.11300
C1638       C  0.29586758  0.92658384  0.06836560     0.15300
C1639       C  0.28898624  0.92607762  0.08978580     0.02200
C1640       C  0.29931107  0.91264222  0.10426373    -0.15600
C1641       C  0.31610697  0.89931540  0.09777869    -0.10400
C1642       C  0.32331274  0.90027170  0.07646968     0.08900
C1643       C  0.28594023  0.94083632  0.05248780     0.09900
S1644       S  0.26710751  0.94200241  0.09965821    -0.24700
H1645       H  0.29367014  0.91202337  0.12057686     0.20200
S1646       S  0.34611873  0.88549136  0.06705010    -0.30400
H1647       H  0.31854251  0.91437825  0.04564052     0.10500
C1648       C  0.29115025  0.96265221  0.05153572     0.03700
C1649       C  0.28049924  0.97585177  0.03701755    -0.12700
C1650       C  0.26498664  0.96758920  0.02313287    -0.08400
C1651       C  0.26067071  0.94542416  0.02338809     0.07200
C1652       C  0.27097715  0.93237506  0.03823571    -0.13500
S1653       S  0.31132721  0.97364579  0.06886491    -0.30400
H1654       H  0.28392231  0.99277562  0.03676874     0.11400
S1655       S  0.24273921  0.93270117  0.00486562    -0.27500
H1656       H  0.26734463  0.91547932  0.03869167     0.08600
H1657       H  0.35739079  0.88629259  0.08639339     0.27100
H1658       H  0.31134240  0.99431094  0.06015201     0.21900
H1659       H  0.24663236  0.94688937  0.98795539     0.27200
H1660       H  0.25595254  0.94375962  0.08036208     0.16000
C1661       C  0.31513317  0.08214602  0.93467657    -0.11300
C1662       C  0.29616863  0.07188256  0.92872449     0.15300
C1663       C  0.28671457  0.07677109  0.90895993     0.02200
C1664       C  0.29647605  0.09166603  0.89556786    -0.15600
C1665       C  0.31540943  0.10216170  0.90145983    -0.10400
C1666       C  0.32473942  0.09735786  0.92139993     0.08900
C1667       C  0.28639300  0.05640505  0.94354715     0.09900
S1668       S  0.26247294  0.06432133  0.89963383    -0.24700
H1669       H  0.28917260  0.09506680  0.88030727     0.20200
S1670       S  0.34817284  0.11071328  0.93131527    -0.30400
H1671       H  0.32228410  0.07853498  0.94995792     0.10500
C1672       C  0.28988476  0.03432616  0.94145687     0.03700
C1673       C  0.27919377  0.02016900  0.95510778    -0.12700
C1674       C  0.26513338  0.02771890  0.97083167    -0.08400
C1675       C  0.26237413  0.04996437  0.97338801     0.07200
C1676       C  0.27287790  0.06401604  0.95961873    -0.13500
S1677       S  0.30776842  0.02425957  0.92126081    -0.30400
H1678       H  0.28141397  0.00314052  0.95328475     0.11400
S1679       S  0.24604866  0.06145453  0.99410412    -0.27500
H1680       H  0.27042745  0.08104051  0.96134586     0.08600
H1681       H  0.34221694  0.13097561  0.92377089     0.27100
H1682       H  0.30572093  0.00255449  0.92654678     0.21900
H1683       H  0.24988428  0.04536160  0.00921282     0.27200
H1684       H  0.25319289  0.06069271  0.91966637     0.16000
C1685       C  0.56817237  0.03393851  0.22700285    -0.11300
C1686       C  0.55947583  0.05263004  0.21829596     0.15300
C1687       C  0.53715453  0.05576296  0.21916430     0.02200
C1688       C  0.52413463  0.04013820  0.22843357    -0.15600
C1689       C  0.53289739  0.02163288  0.23741677    -0.10400
C1690       C  0.55518970  0.01848102  0.23656055     0.08900
C1691       C  0.57408045  0.06827904  0.20810766     0.09900
S1692       S  0.52437160  0.07954167  0.20929175    -0.24700
H1693       H  0.50703666  0.04267087  0.22914323     0.20200
S1694       S  0.56802262  0.99499195  0.24704380    -0.30400
H1695       H  0.58524941  0.03131096  0.22619092     0.10500
C1696       C  0.58968432  0.07916478  0.22001526     0.03700
C1697       C  0.60348001  0.09344638  0.20973774    -0.12700
C1698       C  0.60190510  0.09763342  0.18773365    -0.08400
C1699       C  0.58565236  0.08710472  0.17600119     0.07200
C1700       C  0.57234078  0.07229173  0.18620635    -0.13500
S1701       S  0.59162627  0.07546052  0.24850044    -0.30400
H1702       H  0.61561063  0.10141413  0.21905325     0.11400
S1703       S  0.58027275  0.09229565  0.14831857    -0.27500
H1704       H  0.56018928  0.06408544  0.17706230     0.08600
H1705       H  0.55093348  0.98093070  0.24340227     0.27100
H1706       H  0.60892505  0.08934180  0.25192571     0.21900
H1707       H  0.58034378  0.11460094  0.15087820     0.27200
H1708       H  0.54134547  0.09346624  0.21390103     0.16000
C1709       C  0.43803243  0.95540245  0.22554398    -0.11300
C1710       C  0.44557790  0.94145579  0.20978618     0.15300
C1711       C  0.46751229  0.94170118  0.20445376     0.02200
C1712       C  0.48152659  0.95470037  0.21601419    -0.15600
C1713       C  0.47408613  0.96800358  0.23240343    -0.10400
C1714       C  0.45193902  0.96887080  0.23663731     0.08900
C1715       C  0.43023942  0.92641244  0.19985511     0.09900
S1716       S  0.47865313  0.92569810  0.18330023    -0.24700
H1717       H  0.49844287  0.95421203  0.21239948     0.20200
S1718       S  0.44039299  0.98700080  0.25575173    -0.30400
H1719       H  0.42115602  0.95566018  0.22935479     0.10500
C1720       C  0.43108780  0.90432995  0.20396456     0.03700
C1721       C  0.41606566  0.89072179  0.19446107    -0.12700
C1722       C  0.39984810  0.89869944  0.18120234    -0.08400
C1723       C  0.39913466  0.92091914  0.17711887     0.07200
C1724       C  0.41413994  0.93446991  0.18664431    -0.13500
S1725       S  0.45060918  0.89358431  0.22219169    -0.30400
H1726       H  0.41657095  0.87382083  0.19789546     0.11400
S1727       S  0.38007597  0.93298979  0.15936594    -0.27500
H1728       H  0.41347009  0.95143900  0.18348991     0.08600
H1729       H  0.45567788  0.00321936  0.25305256     0.27100
H1730       H  0.44449345  0.87207753  0.22034458     0.21900
H1731       H  0.38094913  0.91649074  0.14419704     0.27200
H1732       H  0.45992981  0.92424197  0.17110090     0.16000
C1733       C  0.53531798  0.77083469  0.93098796    -0.11300
C1734       C  0.54958111  0.78584990  0.93942179     0.15300
C1735       C  0.54903068  0.79045593  0.96141753     0.02200
C1736       C  0.53509054  0.77914209  0.97464627    -0.15600
C1737       C  0.52124899  0.76362085  0.96636796    -0.10400
C1738       C  0.52099590  0.75986101  0.94416236     0.08900
C1739       C  0.56538199  0.79587369  0.92507386     0.09900
S1740       S  0.56602710  0.81020855  0.97362099    -0.24700
H1741       H  0.53525416  0.78224946  0.99162300     0.20200
S1742       S  0.50268711  0.74153827  0.93165349    -0.30400
H1743       H  0.53547127  0.76754162  0.91404457     0.10500
C1744       C  0.58703867  0.78991793  0.92556636     0.03700
C1745       C  0.60164663  0.80030350  0.91218401    -0.12700
C1746       C  0.59502575  0.81645448  0.89817155    -0.08400
C1747       C  0.57325368  0.82246554  0.89790780     0.07200
C1748       C  0.55866717  0.81191363  0.91110762    -0.13500
S1749       S  0.59592917  0.76861850  0.94276212    -0.30400
H1750       H  0.61821699  0.79545593  0.91224170     0.11400
S1751       S  0.56320140  0.84410890  0.88197538    -0.27500
H1752       H  0.54204028  0.81662608  0.91093560     0.08600
H1753       H  0.48612520  0.74419064  0.94655034     0.27100
H1754       H  0.61778051  0.77021247  0.93787385     0.21900
H1755       H  0.58131828  0.85709265  0.88468011     0.27200
H1756       H  0.56758889  0.82362554  0.95576288     0.16000
C1757       C  0.43161085  0.76566836  0.04073343    -0.11300
C1758       C  0.43925593  0.78266105  0.05307191     0.15300
C1759       C  0.46070344  0.78917069  0.05087335     0.02200
C1760       C  0.47410794  0.77831356  0.03671180    -0.15600
C1761       C  0.46653927  0.76123160  0.02434992    -0.10400
C1762       C  0.44486342  0.75511405  0.02620159     0.08900
C1763       C  0.42464542  0.79283953  0.06853974     0.09900
S1764       S  0.47199865  0.81097982  0.06585438    -0.24700
H1765       H  0.49067127  0.78315041  0.03542714     0.20200
S1766       S  0.43291899  0.73448364  0.01010482    -0.30400
H1767       H  0.41509816  0.76073672  0.04231257     0.10500
C1768       C  0.40881793  0.80731679  0.06195970     0.03700
C1769       C  0.39530814  0.81657937  0.07721174    -0.12700
C1770       C  0.39713176  0.81148835  0.09896103    -0.08400
C1771       C  0.41275337  0.79645784  0.10532733     0.07200
C1772       C  0.42651785  0.78764789  0.09013447    -0.13500
S1773       S  0.40614253  0.81427815  0.03418119    -0.30400
H1774       H  0.38334807  0.82794951  0.07218526     0.11400
S1775       S  0.41517635  0.78674641  0.13223127    -0.27500
H1776       H  0.43846722  0.77620948  0.09509143     0.08600
H1777       H  0.44538500  0.73843301  0.99188472     0.27100
H1778       H  0.38929212  0.82886483  0.03672231     0.21900
H1779       H  0.39304082  0.78477172  0.13550952     0.27200
H1780       H  0.45304619  0.82271633  0.06814753     0.16000
C1781       C  0.57162066  0.22097296  0.03947833    -0.11300
C1782       C  0.56199014  0.20627001  0.05333546     0.15300
C1783       C  0.53978024  0.20275757  0.05198185     0.02200
C1784       C  0.52762511  0.21458312  0.03750989    -0.15600
C1785       C  0.53717413  0.22952706  0.02381689    -0.10400
C1786       C  0.55957330  0.23228288  0.02448935     0.08900
C1787       C  0.57530485  0.19574891  0.06976928     0.09900
S1788       S  0.52605305  0.18340577  0.06824674    -0.24700
H1789       H  0.51049804  0.21217587  0.03699476     0.20200
S1790       S  0.57380676  0.24947274  0.00633417    -0.30400
H1791       H  0.58870655  0.22359038  0.04031329     0.10500
C1792       C  0.59089079  0.18045075  0.06437616     0.03700
C1793       C  0.60358886  0.17150845  0.08047120    -0.12700
C1794       C  0.60117925  0.17776165  0.10180253    -0.08400
C1795       C  0.58512231  0.19261053  0.10721959     0.07200
C1796       C  0.57248149  0.20151306  0.09117140    -0.13500
S1797       S  0.59456094  0.17228410  0.03703500    -0.30400
H1798       H  0.61591013  0.16012054  0.07638031     0.11400
S1799       S  0.57978562  0.20060054  0.13430691    -0.27500
H1800       H  0.56037391  0.21310907  0.09537072     0.08600
H1801       H  0.55982426  0.24653302  0.98908278     0.27100
H1802       H  0.61150559  0.15806567  0.04071805     0.21900
H1803       H  0.58583894  0.18115364  0.14367089     0.27200
H1804       H  0.54325392  0.16912465  0.06991154     0.16000
C1805       C  0.46662922  0.22429872  0.93241185    -0.11300
C1806       C  0.45024897  0.21197808  0.94144312     0.15300
C1807       C  0.44943089  0.20944682  0.96379057     0.02200
C1808       C  0.46465486  0.21965800  0.97654492    -0.15600
C1809       C  0.48085779  0.23225027  0.96755848    -0.10400
C1810       C  0.48202975  0.23426386  0.94517081     0.08900
C1811       C  0.43380584  0.20277808  0.92718349     0.09900
S1812       S  0.42902808  0.19412196  0.97717081    -0.24700
H1813       H  0.46368051  0.21802827  0.99370222     0.20200
S1814       S  0.50287454  0.24906122  0.93192735    -0.30400
H1815       H  0.46737738  0.22619117  0.91527281     0.10500
C1816       C  0.41471763  0.21374819  0.92290778     0.03700
C1817       C  0.39954413  0.20457166  0.90926956    -0.12700
C1818       C  0.40300462  0.18458458  0.89960235    -0.08400
C1819       C  0.42249243  0.17385222  0.90368413     0.07200
C1820       C  0.43750838  0.18296771  0.91752212    -0.13500
S1821       S  0.40977507  0.23954008  0.93475404    -0.30400
H1822       H  0.38480736  0.21301081  0.90621395     0.11400
S1823       S  0.42978704  0.14913197  0.89100172    -0.27500
H1824       H  0.45236022  0.17469094  0.92058491     0.08600
H1825       H  0.51869262  0.24536766  0.94734275     0.27100
H1826       H  0.38970351  0.24300208  0.92538787     0.21900
H1827       H  0.42269220  0.15540793  0.87069985     0.27200
H1828       H  0.42348820  0.18082359  0.96007388     0.16000
C1829       C  0.12134685  0.75525863  0.27501541    -0.11300
C1830       C  0.12747607  0.75971553  0.25401429     0.15300
C1831       C  0.13304715  0.78079122  0.24841280     0.02200
C1832       C  0.13435780  0.79639791  0.26425415    -0.15600
C1833       C  0.12977647  0.79169621  0.28569828    -0.10400
C1834       C  0.12206961  0.77103809  0.29081299     0.08900
C1835       C  0.13055491  0.74171706  0.23905379     0.09900
S1836       S  0.13993322  0.78850241  0.22156932    -0.24700
H1837       H  0.13991169  0.81214698  0.25981784     0.20200
S1838       S  0.11295801  0.76364753  0.31702488    -0.30400
H1839       H  0.11661455  0.73918962  0.27927234     0.10500
C1840       C  0.15122582  0.73510926  0.23335896     0.03700
C1841       C  0.15379577  0.71844095  0.21880812    -0.12700
C1842       C  0.13617432  0.70757338  0.20999473    -0.08400
C1843       C  0.11537610  0.71372009  0.21660312     0.07200
C1844       C  0.11284175  0.73084615  0.23080447    -0.13500
S1845       S  0.17448629  0.74760011  0.24500964    -0.30400
H1846       H  0.16982547  0.71395614  0.21427987     0.11400
S1847       S  0.09144569  0.70033308  0.20807530    -0.27500
H1848       H  0.09694654  0.73566429  0.23558788     0.08600
H1849       H  0.10319625  0.78342271  0.32119073     0.27100
H1850       H  0.18994942  0.73511303  0.23461124     0.21900
H1851       H  0.09923330  0.67992428  0.21320646     0.27200
H1852       H  0.12827934  0.77236633  0.21127000     0.16000
C1853       C  0.26122111  0.77069004  0.10745885    -0.11300
C1854       C  0.26104581  0.75248201  0.12043410     0.15300
C1855       C  0.27687741  0.75011560  0.13621322     0.02200
C1856       C  0.29162108  0.76647982  0.13956648    -0.15600
C1857       C  0.29119221  0.78530391  0.12744088    -0.10400
C1858       C  0.27598158  0.78719927  0.11090180     0.08900
C1859       C  0.24211856  0.73834367  0.12031098     0.09900
S1860       S  0.27800726  0.72736755  0.15379550    -0.24700
H1861       H  0.30327086  0.76468816  0.15218246     0.20200
S1862       S  0.27313059  0.81101609  0.09513898    -0.30400
H1863       H  0.24884434  0.77272556  0.09560393     0.10500
C1864       C  0.22588636  0.74138042  0.13551583     0.03700
C1865       C  0.21011075  0.72581892  0.13801039    -0.12700
C1866       C  0.21013923  0.70711555  0.12569730    -0.08400
C1867       C  0.22569014  0.70469647  0.10950996     0.07200
C1868       C  0.24137844  0.72051074  0.10679892    -0.13500
S1869       S  0.22589549  0.76463581  0.15255550    -0.30400
H1870       H  0.19805961  0.72785164  0.15022049     0.11400
S1871       S  0.22754310  0.68113605  0.09318985    -0.27500
H1872       H  0.25390069  0.71820109  0.09510945     0.08600
H1873       H  0.27539551  0.82508025  0.11245576     0.27100
H1874       H  0.20671552  0.76011892  0.16331193     0.21900
H1875       H  0.22329959  0.66673482  0.10983760     0.27200
H1876       H  0.26944049  0.71255616  0.13936710     0.16000
C1877       C  0.25215223  0.63093124  0.27462571    -0.11300
C1878       C  0.25810400  0.61799960  0.25739950     0.15300
C1879       C  0.27883573  0.60924978  0.25684992     0.02200
C1880       C  0.29340447  0.61441535  0.27293241    -0.15600
C1881       C  0.28777520  0.62808149  0.28977502    -0.10400
C1882       C  0.26672137  0.63627646  0.29061957     0.08900
C1883       C  0.24365053  0.61718404  0.23876538     0.09900
S1884       S  0.28779869  0.59185499  0.23578856    -0.24700
H1885       H  0.30938090  0.60786316  0.27215333     0.20200
S1886       S  0.25792041  0.65526671  0.31033584    -0.30400
H1887       H  0.23641316  0.63808845  0.27485987     0.10500
C1888       C  0.22327940  0.60764897  0.23978173     0.03700
C1889       C  0.20893076  0.61049383  0.22283721    -0.12700
C1890       C  0.21454720  0.62293213  0.20510975    -0.08400
C1891       C  0.23549483  0.63115328  0.20352926     0.07200
C1892       C  0.24970867  0.62832418  0.22038214    -0.13500
S1893       S  0.21536319  0.59249572  0.26292064    -0.30400
H1894       H  0.19288996  0.60415823  0.22397328     0.11400
S1895       S  0.24487775  0.64587486  0.18065954    -0.27500
H1896       H  0.26540609  0.63554527  0.21949238     0.08600
H1897       H  0.27652832  0.66780397  0.30927822     0.27100
H1898       H  0.19500996  0.58668720  0.25547903     0.21900
H1899       H  0.23169127  0.63546264  0.16581585     0.27200
H1900       H  0.26748730  0.58413537  0.23022868     0.16000
C1901       C  0.86810255  0.24757060  0.22936474    -0.11300
C1902       C  0.88050097  0.25463571  0.24646680     0.15300
C1903       C  0.89114319  0.27443320  0.24510292     0.02200
C1904       C  0.88791426  0.28739081  0.22718335    -0.15600
C1905       C  0.87428775  0.28086273  0.21065860    -0.10400
C1906       C  0.86502916  0.26031493  0.21147473     0.08900
C1907       C  0.87945764  0.24194450  0.26619974     0.09900
S1908       S  0.90782810  0.28449154  0.26620082    -0.24700
H1909       H  0.89515332  0.30309095  0.22667575     0.20200
S1910       S  0.84870650  0.24954976  0.19045431    -0.30400
H1911       H  0.86008234  0.23226144  0.23032447     0.10500
C1912       C  0.86390335  0.24653063  0.28173166     0.03700
C1913       C  0.85986424  0.23168128  0.29786561    -0.12700
C1914       C  0.87088555  0.21220507  0.29866600    -0.08400
C1915       C  0.88705900  0.20802131  0.28351051     0.07200
C1916       C  0.89125883  0.22301656  0.26752900    -0.13500
S1917       S  0.84812836  0.27060031  0.28011211    -0.30400
H1918       H  0.84757830  0.23493281  0.30955863     0.11400
S1919       S  0.90143997  0.18315778  0.28242330    -0.27500
H1920       H  0.90287390  0.21934673  0.25528057     0.08600
H1921       H  0.85960092  0.26001163  0.17386041     0.27100
H1922       H  0.83520385  0.26660898  0.29800837     0.21900
H1923       H  0.88351683  0.17027602  0.28656510     0.27200
H1924       H  0.91345019  0.26449627  0.27459388     0.16000
C1925       C  0.78264248  0.24294363  0.12437395    -0.11300
C1926       C  0.76329236  0.25007635  0.11570976     0.15300
C1927       C  0.76154064  0.27157406  0.10909887     0.02200
C1928       C  0.77845085  0.28570458  0.11286415    -0.15600
C1929       C  0.79714190  0.27878424  0.12294602    -0.10400
C1930       C  0.79961955  0.25696704  0.12777234     0.08900
C1931       C  0.74449897  0.23575443  0.11740560     0.09900
S1932       S  0.73778675  0.28216178  0.09687806    -0.24700
H1933       H  0.77652944  0.30244881  0.10900373     0.20200
S1934       S  0.82376731  0.24620942  0.13899310    -0.30400
H1935       H  0.78418138  0.22652161  0.12954332     0.10500
C1936       C  0.74429363  0.21515401  0.10836584     0.03700
C1937       C  0.72796298  0.20082562  0.11392300    -0.12700
C1938       C  0.71165178  0.20677722  0.12810858    -0.08400
C1939       C  0.71146780  0.22778102  0.13638363     0.07200
C1940       C  0.72776333  0.24194865  0.13088079    -0.13500
S1941       S  0.76476708  0.20715322  0.08973592    -0.30400
H1942       H  0.72799209  0.18484867  0.10738889     0.11400
S1943       S  0.69206518  0.23706121  0.15549791    -0.27500
H1944       H  0.72805896  0.25760614  0.13818349     0.08600
H1945       H  0.83751875  0.26185755  0.13064151     0.27100
H1946       H  0.75669104  0.18663041  0.08560150     0.21900
H1947       H  0.69280013  0.21851945  0.16809529     0.27200
H1948       H  0.73062303  0.26265649  0.08844416     0.16000
C1949       C  0.75658805  0.34705220  0.22879358    -0.11300
C1950       C  0.76008897  0.36429260  0.24253009     0.15300
C1951       C  0.77793341  0.37761875  0.23931257     0.02200
C1952       C  0.79215727  0.37309142  0.22270075    -0.15600
C1953       C  0.78896598  0.35551911  0.20915381    -0.10400
C1954       C  0.77060582  0.34263181  0.21206753     0.08900
C1955       C  0.74538288  0.36688222  0.26071515     0.09900
S1956       S  0.78382049  0.40013528  0.25619675    -0.24700
H1957       H  0.80616331  0.38305962  0.22071999     0.20200
S1958       S  0.76381932  0.32055335  0.19492898    -0.30400
H1959       H  0.74279704  0.33686381  0.23122299     0.10500
C1960       C  0.72482672  0.37538566  0.25796032     0.03700
C1961       C  0.71016891  0.37444131  0.27481148    -0.12700
C1962       C  0.71549234  0.36475868  0.29432659    -0.08400
C1963       C  0.73654355  0.35687921  0.29713273     0.07200
C1964       C  0.75125203  0.35835895  0.28043018    -0.13500
S1965       S  0.71715709  0.38692407  0.23276010    -0.30400
H1966       H  0.69425011  0.38069582  0.27251858     0.11400
S1967       S  0.74529323  0.34294971  0.32065004    -0.27500
H1968       H  0.76704596  0.35161488  0.28237160     0.08600
H1969       H  0.77057206  0.33064844  0.17607674     0.27100
H1970       H  0.69629946  0.39268475  0.23871313     0.21900
H1971       H  0.72817702  0.32839864  0.32031072     0.27200
H1972       H  0.76277033  0.40411927  0.26279429     0.16000
C1973       C  0.86986832  0.75113533  0.72508074    -0.11300
C1974       C  0.88164421  0.75730828  0.74299745     0.15300
C1975       C  0.89166456  0.77752118  0.74317269     0.02200
C1976       C  0.88815785  0.79172917  0.72626184    -0.15600
C1977       C  0.87499306  0.78606770  0.70909096    -0.10400
C1978       C  0.86659685  0.76516777  0.70812419     0.08900
C1979       C  0.88056602  0.74334283  0.76202696     0.09900
S1980       S  0.90801254  0.78649465  0.76501498    -0.24700
H1981       H  0.89481590  0.80766964  0.72706443     0.20200
S1982       S  0.85110440  0.75560501  0.68593209    -0.30400
H1983       H  0.86238671  0.73554094  0.72470755     0.10500
C1984       C  0.86696400  0.74848001  0.77917648     0.03700
C1985       C  0.86348371  0.73346074  0.79531375    -0.12700
C1986       C  0.87298558  0.71320047  0.79460213    -0.08400
C1987       C  0.88699225  0.70822192  0.77765346     0.07200
C1988       C  0.89075656  0.72340336  0.76165459    -0.13500
S1989       S  0.85269836  0.77352550  0.77975886    -0.30400
H1990       H  0.85267792  0.73721448  0.80824842     0.11400
S1991       S  0.89907757  0.68232503  0.77455672    -0.27500
H1992       H  0.90084811  0.71927194  0.74825933     0.08600
H1993       H  0.86101821  0.76858403  0.67054843     0.27100
H1994       H  0.84084099  0.76953594  0.79837556     0.21900
H1995       H  0.88112743  0.67068691  0.78136828     0.27200
H1996       H  0.91387662  0.76609397  0.77218712     0.16000
C1997       C  0.77443513  0.75147555  0.86800229    -0.11300
C1998       C  0.75795490  0.74679628  0.88233074     0.15300
C1999       C  0.75895981  0.72783813  0.89443276     0.02200
C2000       C  0.77570352  0.71336586  0.89094096    -0.15600
C2001       C  0.79153678  0.71747523  0.87560424    -0.10400
C2002       C  0.79125265  0.73725014  0.86467889     0.08900
C2003       C  0.73879937  0.76063289  0.88188921     0.09900
S2004       S  0.73889400  0.72089873  0.91382731    -0.24700
H2005       H  0.77578823  0.69836665  0.89952104     0.20200
S2006       S  0.81163861  0.74522574  0.84596215    -0.30400
H2007       H  0.77380916  0.76608223  0.85877222     0.10500
C2008       C  0.73913538  0.78165164  0.88986807     0.03700
C2009       C  0.72175474  0.79523334  0.88590763    -0.12700
C2010       C  0.70430010  0.78829608  0.87371841    -0.08400
C2011       C  0.70358901  0.76690299  0.86669195     0.07200
C2012       C  0.72080255  0.75335612  0.87082772    -0.13500
S2013       S  0.76201999  0.79133595  0.90439126    -0.30400
H2014       H  0.72229342  0.81165154  0.89124498     0.11400
S2015       S  0.68138400  0.75608699  0.85197041    -0.27500
H2016       H  0.72052574  0.73720552  0.86467484     0.08600
H2017       H  0.82844306  0.73484800  0.85656201     0.27100
H2018       H  0.75419276  0.81201921  0.90814918     0.21900
H2019       H  0.66580818  0.76920447  0.86139011     0.27200
H2020       H  0.73284024  0.74194767  0.91863172     0.16000
C2021       C  0.76901755  0.61681351  0.76698374    -0.11300
C2022       C  0.75362559  0.63271871  0.76392495     0.15300
C2023       C  0.75367983  0.65091414  0.77710937     0.02200
C2024       C  0.76959734  0.65322716  0.79242485    -0.15600
C2025       C  0.78568124  0.63781854  0.79503620    -0.10400
C2026       C  0.78518967  0.61926182  0.78218884     0.08900
C2027       C  0.73953731  0.63147983  0.74517701     0.09900
S2028       S  0.73474259  0.67242516  0.77434527    -0.24700
H2029       H  0.76957258  0.66747289  0.80220687     0.20200
S2030       S  0.80563552  0.59913701  0.78295447    -0.30400
H2031       H  0.76915448  0.60300481  0.75660732     0.10500
C2032       C  0.74518820  0.64179022  0.72608396     0.03700
C2033       C  0.73033273  0.64295895  0.70951179    -0.12700
C2034       C  0.70988638  0.63397727  0.71162067    -0.08400
C2035       C  0.70501973  0.62201638  0.73016257     0.07200
C2036       C  0.71981628  0.62110161  0.74682229    -0.13500
S2037       S  0.77102056  0.65430180  0.72322002    -0.30400
H2038       H  0.73428804  0.65192976  0.69532157     0.11400
S2039       S  0.68042699  0.60745403  0.73351902    -0.27500
H2040       H  0.71575018  0.61271688  0.76136011     0.08600
H2041       H  0.82249573  0.61395779  0.78322519     0.27100
H2042       H  0.76862848  0.66053668  0.70184324     0.21900
H2043       H  0.67844141  0.60199557  0.71187437     0.27200
H2044       H  0.71778822  0.66008024  0.76651360     0.16000
C2045       C  0.03460638  0.70921935  0.06070346    -0.11300
C2046       C  0.05657423  0.71333804  0.05941561     0.15300
C2047       C  0.06413663  0.72844003  0.04452605     0.02200
C2048       C  0.04965003  0.73893779  0.03124484    -0.15600
C2049       C  0.02762043  0.73510286  0.03274041    -0.10400
C2050       C  0.02004857  0.72016480  0.04785356     0.08900
C2051       C  0.07115901  0.70178629  0.07392116     0.09900
S2052       S  0.09199336  0.73519191  0.04183510    -0.24700
H2053       H  0.05561178  0.75032442  0.01968358     0.20200
S2054       S  0.99207237  0.71492213  0.05216476    -0.30400
H2055       H  0.02873204  0.69770028  0.07217945     0.10500
C2056       C  0.07112484  0.70581747  0.09598866     0.03700
C2057       C  0.08560792  0.69503361  0.10910614    -0.12700
C2058       C  0.10018655  0.68018608  0.10070665    -0.08400
C2059       C  0.09955034  0.67559705  0.07863177     0.07200
C2060       C  0.08527331  0.68662343  0.06550041    -0.13500
S2061       S  0.05340426  0.72551331  0.10734923    -0.30400
H2062       H  0.08603188  0.69873162  0.12593820     0.11400
S2063       S  0.11582695  0.65536211  0.06632266    -0.27500
H2064       H  0.08499287  0.68322301  0.04858182     0.08600
H2065       H  0.98514548  0.73574154  0.04757072     0.27100
H2066       H  0.05853958  0.72168863  0.12880698     0.21900
H2067       H  0.11430327  0.64100136  0.08347582     0.27200
H2068       H  0.09724266  0.73237185  0.06340536     0.16000
C2069       C  0.96375944  0.70953517  0.94804451    -0.11300
C2070       C  0.94205006  0.71490268  0.94862754     0.15300
C2071       C  0.93487447  0.73047987  0.96318235     0.02200
C2072       C  0.94949948  0.74020101  0.97689334    -0.15600
C2073       C  0.97132844  0.73521619  0.97603529    -0.10400
C2074       C  0.97851889  0.71979411  0.96123595     0.08900
C2075       C  0.92744422  0.70449952  0.93336071     0.09900
S2076       S  0.90741733  0.73895375  0.96478703    -0.24700
H2077       H  0.94384745  0.75203987  0.98814454     0.20200
S2078       S  0.00630407  0.71328663  0.95753332    -0.30400
H2079       H  0.96932267  0.69773480  0.93670814     0.10500
C2080       C  0.92800897  0.70975719  0.91157089     0.03700
C2081       C  0.91373282  0.69985952  0.89757204    -0.12700
C2082       C  0.89877065  0.68484487  0.90487886    -0.08400
C2083       C  0.89862246  0.67922418  0.92671305     0.07200
C2084       C  0.91280037  0.68927278  0.94072286    -0.13500
S2085       S  0.94622460  0.72984667  0.90174685    -0.30400
H2086       H  0.91377987  0.70433101  0.88092242     0.11400
S2087       S  0.88141024  0.65887879  0.93755963    -0.27500
H2088       H  0.91259143  0.68505681  0.95745808     0.08600
H2089       H  0.01403153  0.73393597  0.96168547     0.27100
H2090       H  0.94072003  0.72811250  0.88011056     0.21900
H2091       H  0.88230446  0.64559915  0.91951721     0.27200
H2092       H  0.90261094  0.73603807  0.94312929     0.16000
C2093       C  0.11034138  0.26119380  0.77535112    -0.11300
C2094       C  0.11772396  0.26369342  0.75440688     0.15300
C2095       C  0.12638732  0.28347861  0.74800512     0.02200
C2096       C  0.12909829  0.29966105  0.76305359    -0.15600
C2097       C  0.12285325  0.29678237  0.78429990    -0.10400
C2098       C  0.11262194  0.27762391  0.79031039     0.08900
C2099       C  0.12051867  0.24452071  0.74101961     0.09900
S2100       S  0.13639477  0.28823137  0.72147532    -0.24700
H2101       H  0.13707002  0.31428957  0.75837845     0.20200
S2102       S  0.10484585  0.27222131  0.81738632    -0.30400
H2103       H  0.10400626  0.24591204  0.78039812     0.10500
C2104       C  0.13981679  0.23313606  0.74177456     0.03700
C2105       C  0.14356588  0.21691265  0.72698998    -0.34300
C2106       C  0.12851735  0.21177954  0.71117251    -0.08400
C2107       C  0.10861852  0.22257699  0.71122872     0.07200
C2108       C  0.10475027  0.23860402  0.72635918    -0.13500
S2109       S  0.16001745  0.23973771  0.76124281    -0.30400
H2110       H  0.15859891  0.20846017  0.72752534     0.11400
S2111       S  0.08812008  0.21788362  0.69172178    -0.27500
H2112       H  0.08986888  0.24736486  0.72591589     0.08600
H2113       H  0.09407031  0.29168250  0.82006135     0.27100
H2114       H  0.17497260  0.22418642  0.75510752     0.21900
H2115       H  0.10215135  0.21958118  0.67428690     0.27200
H2116       H  0.12173118  0.27495911  0.71099510     0.16000
C2117       C  0.23730609  0.27723850  0.88163206    -0.11300
C2118       C  0.23822870  0.25943109  0.86813224     0.15300
C2119       C  0.22265225  0.25689126  0.85214146     0.02200
C2120       C  0.20672800  0.27227615  0.84982472    -0.15600
C2121       C  0.20622917  0.29062526  0.86267637    -0.10400
C2122       C  0.22172058  0.29301997  0.87887502     0.08900
C2123       C  0.25633036  0.24446316  0.87005690     0.09900
S2124       S  0.22252856  0.23476220  0.83374227    -0.24700
H2125       H  0.19498030  0.27023134  0.83733270     0.20200
S2126       S  0.22358896  0.31648006  0.89534689    -0.30400
H2127       H  0.24941481  0.27931828  0.89376082     0.10500
C2128       C  0.27625600  0.24930706  0.86086397     0.03700
C2129       C  0.29238148  0.23385076  0.86081113    -0.12700
C2130       C  0.28901580  0.21352483  0.86967526    -0.08400
C2131       C  0.26938216  0.20923439  0.88003169     0.07200
C2132       C  0.25319247  0.22463768  0.87987007    -0.13500
S2133       S  0.28060186  0.27460011  0.84774795    -0.30400
H2134       H  0.30727781  0.23723753  0.85275545     0.11400
S2135       S  0.26404789  0.18464187  0.89391260    -0.27500
H2136       H  0.23794044  0.22106835  0.88719265     0.08600
H2137       H  0.22021072  0.33092972  0.87854918     0.27100
H2138       H  0.30215850  0.27125782  0.84245353     0.21900
H2139       H  0.28519942  0.18162719  0.90075570     0.27200
H2140       H  0.24475988  0.23224738  0.83243513     0.16000
C2141       C  0.22592008  0.39162021  0.75509953    -0.11300
C2142       C  0.24402785  0.37850138  0.75562820     0.15300
C2143       C  0.24647758  0.36366543  0.77231286     0.02200
C2144       C  0.23014089  0.36111315  0.78714130    -0.15600
C2145       C  0.21141755  0.37328373  0.78603069    -0.10400
C2146       C  0.20949923  0.38911433  0.77010505     0.08900
C2147       C  0.25817582  0.37753999  0.73688807     0.09900
S2148       S  0.26932940  0.34631628  0.77456359    -0.24700
H2149       H  0.23186614  0.34911627  0.79945037     0.20200
S2150       S  0.18591266  0.40521319  0.76691606    -0.30400
H2151       H  0.22394356  0.40285023  0.74213647     0.10500
C2152       C  0.25556643  0.36106563  0.72189530     0.03700
C2153       C  0.27134777  0.35769169  0.70657178    -0.12700
C2154       C  0.28976106  0.37042477  0.70586309    -0.08400
C2155       C  0.29176878  0.38775397  0.72017023     0.07200
C2156       C  0.27577415  0.39128351  0.73540537    -0.13500
S2157       S  0.23250543  0.34373298  0.72285377    -0.30400
H2158       H  0.26960051  0.34468539  0.69535672     0.11400
S2159       S  0.31497897  0.40471551  0.72103430    -0.27500
H2160       H  0.27774132  0.40388604  0.74704841     0.08600
H2161       H  0.17140178  0.38880950  0.77182721     0.27100
H2162       H  0.23784423  0.33111332  0.70510888     0.21900
H2163       H  0.32974409  0.38808649  0.71808895     0.27200
H2164       H  0.28411492  0.36055477  0.76556216     0.16000
C2165       C  0.96068704  0.56970529  0.77882479    -0.11300
C2166       C  0.94316789  0.56017637  0.78904376     0.15300
C2167       C  0.94067333  0.53779660  0.78792293     0.02200
C2168       C  0.95539001  0.52558568  0.77629460    -0.15600
C2169       C  0.97273534  0.53517433  0.76584917    -0.10400
C2170       C  0.97557309  0.55746815  0.76749098     0.08900
C2171       C  0.92725122  0.57416075  0.79971009     0.09900
S2172       S  0.91896283  0.52393280  0.80076108    -0.24700
H2173       H  0.95321002  0.50846719  0.77522859     0.20200
S2174       S  0.99786037  0.57121404  0.75552830    -0.30400
H2175       H  0.96272799  0.58685376  0.77964208     0.10500
C2176       C  0.93183891  0.58470226  0.81901090     0.03700
C2177       C  0.91674002  0.59877128  0.82783416    -0.12700
C2178       C  0.89701827  0.60242102  0.81783874    -0.08400
C2179       C  0.89250588  0.59173458  0.79851382     0.07200
C2180       C  0.90751407  0.57762500  0.78982389    -0.13500
S2181       S  0.95673155  0.57983365  0.83261029    -0.30400
H2182       H  0.92022501  0.60689554  0.84264350     0.11400
S2183       S  0.86850937  0.59638370  0.78345431    -0.27500
H2184       H  0.90405004  0.56974001  0.77486270     0.08600
H2185       H  0.01252206  0.55438241  0.75755742     0.27100
H2186       H  0.95309755  0.59379555  0.84976791     0.21900
H2187       H  0.86745353  0.61836715  0.78781710     0.27200
H2188       H  0.91629715  0.53848230  0.81758362     0.16000
C2189       C  0.06672353  0.42361381  0.80774061    -0.11300
C2190       C  0.07421099  0.43622088  0.79087845     0.15300
C2191       C  0.09570336  0.43449579  0.78438205     0.02200
C2192       C  0.10920641  0.42022968  0.79488445    -0.15600
C2193       C  0.10164275  0.40723122  0.81147248    -0.10400
C2194       C  0.08019633  0.40926219  0.81818843     0.08900
C2195       C  0.05926571  0.45125838  0.78067838     0.09900
S2196       S  0.10678975  0.44969758  0.76262173    -0.24700
H2197       H  0.12558543  0.41871453  0.78953111     0.20200
S2198       S  0.06925717  0.39467074  0.84041505    -0.30400
H2199       H  0.05029992  0.42515243  0.81292526     0.10500
C2200       C  0.04405469  0.44413537  0.76581184     0.03700
C2201       C  0.03007507  0.45888541  0.75654333    -0.12700
C2202       C  0.03103006  0.48063979  0.76183565    -0.08400
C2203       C  0.04655516  0.48774101  0.77654253     0.07200
C2204       C  0.06033430  0.47294641  0.78595736    -0.13500
S2205       S  0.04283538  0.41633944  0.75832188    -0.30400
H2206       H  0.01829648  0.45350939  0.74513737     0.11400
S2207       S  0.05010245  0.51544787  0.78340571    -0.27500
H2208       H  0.07219708  0.47839498  0.79726664     0.08600
H2209       H  0.08816764  0.39478829  0.85245798     0.27100
H2210       H  0.02577766  0.41823166  0.74392028     0.21900
H2211       H  0.04445791  0.52357925  0.76332626     0.27200
H2212       H  0.08783369  0.45153149  0.75085563     0.16000
C2213       C  0.93656071  0.28784126  0.09388549    -0.11300
C2214       C  0.93562889  0.29436248  0.07257477     0.15300
C2215       C  0.91987396  0.30910962  0.06623989     0.02200
C2216       C  0.90510221  0.31657513  0.08118017    -0.15600
C2217       C  0.90575934  0.30986816  0.10251034    -0.10400
C2218       C  0.92173735  0.29520244  0.10884618     0.08900
C2219       C  0.94992010  0.28396203  0.05696571     0.09900
S2220       S  0.91768025  0.31887234  0.03931607    -0.24700
H2221       H  0.89304944  0.32785962  0.07609810     0.20200
S2222       S  0.92319882  0.28393492  0.13521999    -0.30400
H2223       H  0.94839731  0.27620427  0.09868651     0.10500
C2224       C  0.97199509  0.28818800  0.05642763     0.03700
C2225       C  0.98477320  0.27797975  0.04114929    -0.12700
C2226       C  0.97591239  0.26351256  0.02653382    -0.08400
C2227       C  0.95374480  0.25934911  0.02717661     0.07200
C2228       C  0.94108008  0.26945710  0.04246749    -0.13500
S2229       S  0.98377422  0.30684379  0.07491632    -0.30400
H2230       H  0.00176231  0.28110501  0.04064114     0.11400
S2231       S  0.94051718  0.24180632  0.00863522    -0.27500
H2232       H  0.92409137  0.26620564  0.04292549     0.08600
H2233       H  0.90104649  0.28076184  0.13715804     0.27100
H2234       H  0.00493328  0.30469617  0.06773670     0.21900
H2235       H  0.95381642  0.24652823  0.99120556     0.27200
H2236       H  0.93948150  0.31717067  0.03430395     0.16000
C2237       C  0.03315746  0.29551755  0.93948695    -0.11300
C2238       C  0.05513710  0.29129250  0.93860249     0.15300
C2239       C  0.06378579  0.27538922  0.95195170     0.02200
C2240       C  0.05042847  0.26425361  0.96589079    -0.15600
C2241       C  0.02836445  0.26804496  0.96645603    -0.10400
C2242       C  0.01963137  0.28380755  0.95289702     0.08900
C2243       C  0.06868611  0.30333913  0.92340765     0.09900
S2244       S  0.09164303  0.26818849  0.95165532    -0.24700
H2245       H  0.05730057  0.25226715  0.97624345     0.20200
S2246       S  0.99139976  0.28910559  0.95115746    -0.30400
H2247       H  0.02642386  0.30764186  0.92920360     0.10500
C2248       C  0.06661981  0.30052270  0.90123934     0.03700
C2249       C  0.08100366  0.31072344  0.88748931    -0.12700
C2250       C  0.09756255  0.32365648  0.89535292    -0.08400
C2251       C  0.09888910  0.32727930  0.91756807     0.07200
C2252       C  0.08457929  0.31697468  0.93129801    -0.13500
S2253       S  0.04661618  0.28279544  0.89043522    -0.30400
H2254       H  0.07989523  0.30784522  0.87053148     0.11400
S2255       S  0.11806566  0.34512156  0.92941507    -0.27500
H2256       H  0.08593608  0.31944130  0.94832101     0.08600
H2257       H  0.98483534  0.26803827  0.95520118     0.27100
H2258       H  0.05075699  0.28695798  0.86881037     0.21900
H2259       H  0.11725874  0.36020286  0.91284745     0.27200
H2260       H  0.09470608  0.27142827  0.92970932     0.16000
C2261       C  0.03605882  0.56414068  0.22310998    -0.11300
C2262       C  0.05195806  0.55546312  0.20995546     0.15300
C2263       C  0.05274491  0.53311943  0.20704967     0.02200
C2264       C  0.03823575  0.52001243  0.21792367    -0.15600
C2265       C  0.02253651  0.52868823  0.23135946    -0.10400
C2266       C  0.02114108  0.55110151  0.23344360     0.08900
C2267       C  0.06819262  0.57002417  0.20059557     0.09900
S2268       S  0.07187799  0.52039429  0.18974648    -0.24700
H2269       H  0.03933298  0.50285889  0.21605598     0.20200
S2270       S  0.00046111  0.56408678  0.24865367    -0.30400
H2271       H  0.03526989  0.58126489  0.22533703     0.10500
C2272       C  0.06272768  0.58574056  0.18548623     0.03700
C2273       C  0.07853256  0.59969757  0.17780838    -0.12700
C2274       C  0.09977204  0.59826476  0.18484606    -0.08400
C2275       C  0.10506684  0.58265800  0.20024068     0.07200
C2276       C  0.08934447  0.56863759  0.20770856    -0.13500
S2277       S  0.03578004  0.58759993  0.17548202    -0.30400
H2278       H  0.07441540  0.61159061  0.16601712     0.11400
S2279       S  0.13122373  0.58057141  0.21197390    -0.27500
H2280       H  0.09350354  0.55686718  0.21963431     0.08600
H2281       H  0.98470107  0.54857751  0.24480889     0.27100
H2282       H  0.03942842  0.60451300  0.16122215     0.21900
H2283       H  0.13481114  0.60270989  0.21290273     0.27200
H2284       H  0.07361472  0.53739384  0.17524654     0.16000
C2285       C  0.92851378  0.40277068  0.20993291    -0.11300
C2286       C  0.92773765  0.42374595  0.20228292     0.15300
C2287       C  0.91282583  0.42908009  0.18630690     0.02200
C2288       C  0.89858426  0.41353189  0.17889538    -0.15600
C2289       C  0.89921256  0.39253648  0.18666146    -0.10400
C2290       C  0.91434450  0.38720902  0.20250983     0.08900
C2291       C  0.94168221  0.43987333  0.21245236     0.09900
S2292       S  0.91115621  0.45536402  0.17474697    -0.24700
H2293       H  0.88721123  0.41775204  0.16662095     0.20200
S2294       S  0.91560819  0.36127264  0.21487625    -0.30400
H2295       H  0.93976937  0.39868975  0.22236708     0.10500
C2296       C  0.93346915  0.45460506  0.22728766     0.03700
C2297       C  0.94735230  0.46894121  0.23737616    -0.12700
C2298       C  0.96936485  0.46880083  0.23308549    -0.08400
C2299       C  0.97756205  0.45383717  0.21830236     0.07200
C2300       C  0.96362661  0.43966885  0.20808823    -0.13500
S2301       S  0.90538625  0.45473889  0.23383543    -0.30400
H2302       H  0.94107066  0.48036212  0.24869112     0.11400
S2303       S  0.00562490  0.45134375  0.21239638    -0.27500
H2304       H  0.96996856  0.42811711  0.19691405     0.08600
H2305       H  0.89339281  0.35802241  0.21519311     0.27100
H2306       H  0.90604032  0.47206291  0.24805201     0.21900
H2307       H  0.01276118  0.45689566  0.23287904     0.27200
H2308       H  0.93248382  0.46122416  0.17840625     0.16000
C2309       C  0.19159667  0.58024956  0.06412503    -0.11300
C2310       C  0.20579087  0.56508729  0.07237691     0.15300
C2311       C  0.20946524  0.56446026  0.09455237     0.02200
C2312       C  0.19863294  0.57869878  0.10790562    -0.15600
C2313       C  0.18461509  0.59413656  0.09967272    -0.10400
C2314       C  0.18087693  0.59460346  0.07744961     0.08900
C2315       C  0.21673467  0.55051434  0.05731672     0.09900
S2316       S  0.22826183  0.54644902  0.10678475    -0.24700
H2317       H  0.20188390  0.57826122  0.12484429     0.20200
S2318       S  0.16214572  0.61252312  0.06509185    -0.30400
H2319       H  0.18865838  0.58072389  0.04713050     0.10500
C2320       C  0.21210156  0.52850995  0.05651110     0.03700
C2321       C  0.22326112  0.51544083  0.04214292    -0.12700
C2322       C  0.23857465  0.52401401  0.02817607    -0.08400
C2323       C  0.24230467  0.54626727  0.02831489     0.07200
C2324       C  0.23167205  0.55914293  0.04308977    -0.13500
S2325       S  0.19160887  0.51718827  0.07332652    -0.30400
H2326       H  0.22014782  0.49845738  0.04181002     0.11400
S2327       S  0.25963175  0.55939041  0.00945509    -0.27500
H2328       H  0.23482455  0.57613889  0.04330332     0.08600
H2329       H  0.14700149  0.61122448  0.08160507     0.27100
H2330       H  0.19263881  0.49634489  0.06510297     0.21900
H2331       H  0.25532540  0.54544327  0.99244145     0.27200
H2332       H  0.24215782  0.54486965  0.08927622     0.16000
C2333       C  0.21164158  0.43053784  0.90362865    -0.11300
C2334       C  0.20511336  0.42957979  0.92495744     0.15300
C2335       C  0.18907975  0.41493756  0.93098405     0.02200
C2336       C  0.18041496  0.40117796  0.91571311    -0.15600
C2337       C  0.18705496  0.40193793  0.89435059    -0.10400
C2338       C  0.20305245  0.41674336  0.88835361     0.08900
C2339       C  0.21636945  0.44307647  0.94068483     0.09900
S2340       S  0.17910775  0.41292045  0.95787391    -0.24700
H2341       H  0.16812872  0.38998262  0.92050515     0.20200
S2342       S  0.21430922  0.41788199  0.86192923    -0.30400
H2343       H  0.22415408  0.44156792  0.89902586     0.10500
C2344       C  0.23163845  0.43437044  0.95464042     0.03700
C2345       C  0.24224920  0.44776723  0.96904464    -0.12700
C2346       C  0.23814699  0.46978133  0.96958527    -0.08400
C2347       C  0.22318794  0.47851726  0.95515236     0.07200
C2348       C  0.21231677  0.46504834  0.94106949    -0.13500
S2349       S  0.23809757  0.40631172  0.95362809    -0.30400
H2350       H  0.25385638  0.44112403  0.97992115     0.11400
S2351       S  0.21796235  0.50673638  0.95316252    -0.27500
H2352       H  0.20087121  0.47177639  0.93004566     0.08600
H2353       H  0.21440693  0.39564853  0.85886388     0.27100
H2354       H  0.25252526  0.40630172  0.97075967     0.21900
H2355       H  0.23889659  0.51326532  0.95792525     0.27200
H2356       H  0.18315092  0.43418590  0.96368718     0.16000
C2357       C  0.79269370  0.55597506  0.96826075    -0.11300
C2358       C  0.78625465  0.55685788  0.94687497     0.15300
C2359       C  0.77081759  0.54218855  0.93952835     0.02200
C2360       C  0.76255981  0.52682038  0.95346801    -0.15600
C2361       C  0.76868878  0.52608005  0.97498967    -0.10400
C2362       C  0.78376046  0.54116982  0.98246301     0.08900
C2363       C  0.79621418  0.57284848  0.93245050     0.09900
S2364       S  0.76059942  0.54257698  0.91269260    -0.24700
H2365       H  0.75087787  0.51554027  0.94753367     0.20200
S2366       S  0.79142619  0.54323737  0.01005049    -0.30400
H2367       H  0.80444201  0.56726457  0.97404407     0.10500
C2368       C  0.79257484  0.59490706  0.93488646     0.03700
C2369       C  0.80188723  0.60932250  0.92046361    -0.12700
C2370       C  0.81481773  0.60224034  0.90352342    -0.08400
C2371       C  0.81889882  0.58007955  0.90160008     0.07200
C2372       C  0.80940270  0.56573616  0.91586224    -0.13500
S2373       S  0.77519068  0.60466674  0.95568997    -0.30400
H2374       H  0.79858277  0.62618555  0.92206411     0.11400
S2375       S  0.83667580  0.56898933  0.88192644    -0.27500
H2376       H  0.81249440  0.54882180  0.91416197     0.08600
H2377       H  0.77114941  0.53823658  0.01829467     0.27100
H2378       H  0.77817462  0.62653178  0.95164498     0.21900
H2379       H  0.85210164  0.58517258  0.88405447     0.27200
H2380       H  0.76224433  0.56476266  0.90985815     0.16000
C2381       C  0.79185876  0.40243182  0.07422649    -0.11300
C2382       C  0.80094970  0.42288534  0.07336119     0.15300
C2383       C  0.81810398  0.42783619  0.08709398     0.02200
C2384       C  0.82574308  0.41233586  0.10124809    -0.15600
C2385       C  0.81705635  0.39169795  0.10170254    -0.10400
C2386       C  0.79978750  0.38681522  0.08807788     0.08900
C2387       C  0.79156856  0.43887892  0.05862502     0.09900
S2388       S  0.83101010  0.45355007  0.08729176    -0.24700
H2389       H  0.83890171  0.41628900  0.11171369     0.20200
S2390       S  0.78611470  0.36157020  0.08904887    -0.30400
H2391       H  0.77837507  0.39866154  0.06410628     0.10500
C2392       C  0.79429376  0.43734867  0.03636747     0.03700
C2393       C  0.78428252  0.45224023  0.02294857    -0.12700
C2394       C  0.77163391  0.46869459  0.03134969    -0.08400
C2395       C  0.76971552  0.47070882  0.05370953     0.07200
C2396       C  0.77945719  0.45568984  0.06704353    -0.13500
S2397       S  0.81061963  0.41647687  0.02509270    -0.30400
H2398       H  0.78582897  0.45077953  0.00584056     0.11400
S2399       S  0.75519854  0.49218316  0.06618738    -0.27500
H2400       H  0.77757859  0.45709204  0.08414214     0.08600
H2401       H  0.80391156  0.35002519  0.08177855     0.27100
H2402       H  0.80882462  0.42298838  0.00373968     0.21900
H2403       H  0.75901175  0.50729530  0.05007518     0.27200
H2404       H  0.82738094  0.45837040  0.06574725     0.16000
C2405       C  0.83776062  0.00208921  0.98578395    -0.11300
C2406       C  0.84833761  0.99754888  0.00490520     0.15300
C2407       C  0.83629084  0.99270457  0.02331705     0.02200
C2408       C  0.81398096  0.99245732  0.02208603    -0.15600
C2409       C  0.80337132  0.99690456  0.00291186    -0.10400
C2410       C  0.81548025  0.00209365  0.98463620     0.08900
C2411       C  0.87190072  0.99846017  0.00493843     0.09900
S2412       S  0.84812033  0.98696707  0.04889267    -0.24700
H2413       H  0.80477053  0.98859098  0.03619982     0.20200
S2414       S  0.80353682  0.00972949  0.95966484    -0.30400
H2415       H  0.84698712  0.00607092  0.97171327     0.10500
C2416       C  0.88416979  0.98078252  0.99863358     0.03700
C2417       C  0.90643771  0.98265561  0.99753591    -0.12700
C2418       C  0.91682976  0.00193939  0.00252306    -0.08400
C2419       C  0.90428354  0.01969388  0.00878624     0.07200
C2420       C  0.88205814  0.01765938  0.01014432    -0.13500
S2421       S  0.87140101  0.95578956  0.99211101    -0.30400
H2422       H  0.91581330  0.96892402  0.99291495     0.11400
S2423       S  0.91531960  0.04568652  0.01402013    -0.27500
H2424       H  0.87252165  0.03133581  0.01469402     0.08600
H2425       H  0.78564601  0.01985812  0.96864181     0.27100
H2426       H  0.89020334  0.94391787  0.98912531     0.21900
H2427       H  0.92940395  0.04503874  0.99657072     0.27200
H2428       H  0.86890026  0.98240693  0.04194316     0.16000
C2429       C  0.97935201  0.88316865  0.99758413    -0.11300
C2430       C  0.99844046  0.87257657  0.00237318     0.15300
C2431       C  0.01680864  0.88459717  0.00731710     0.02200
C2432       C  0.01573936  0.90686317  0.00721322    -0.15600
C2433       C  0.99673985  0.91765434  0.00220968    -0.10400
C2434       C  0.97817416  0.90549745  0.99780586     0.08900
C2435       C  0.99855922  0.84900565  0.00287712     0.09900
S2436       S  0.04199888  0.87261294  0.01440639    -0.24700
H2437       H  0.03007215  0.91585044  0.01077938     0.20200
S2438       S  0.95227481  0.91728048  0.99369288    -0.30400
H2439       H  0.96511349  0.87393127  0.99424013     0.10500
C2440       C  0.99552053  0.83772106  0.02203139     0.03700
C2441       C  0.99649040  0.81536187  0.02191702    -0.12700
C2442       C  0.00067409  0.80408318  0.00303756    -0.08400
C2443       C  0.00423638  0.81556069  0.98395674     0.07200
C2444       C  0.00268389  0.83781860  0.98400729    -0.13500
S2445       S  0.99025208  0.85184666  0.04654032    -0.30400
H2446       H  0.99369526  0.80657457  0.03650096     0.11400
S2447       S  0.01178297  0.80287454  0.95928439    -0.27500
H2448       H  0.00542304  0.84656740  0.96936919     0.08600
H2449       H  0.95478043  0.93295917  0.00953653     0.27100
H2450       H  0.98973443  0.83382077  0.05985962     0.21900
H2451       H  0.02319027  0.78606006  0.96874574     0.27200
H2452       H  0.03948255  0.85354350  0.00297788     0.16000
C2453       C  0.98590824  0.00612948  0.83782243    -0.11300
C2454       C  0.00429043  0.00016156  0.84899395     0.15300
C2455       C  0.02295094  0.99468258  0.83759630     0.02200
C2456       C  0.02263715  0.99484772  0.81529751    -0.15600
C2457       C  0.00418309  0.00070049  0.80411309    -0.10400
C2458       C  0.98573660  0.00676838  0.81557451     0.08900
C2459       C  0.00340310  0.99995489  0.87251737     0.09900
S2460       S  0.04748832  0.98703732  0.85047944    -0.24700
H2461       H  0.03685541  0.99024522  0.80657420     0.20200
S2462       S  0.96168668  0.01597872  0.80278246    -0.30400
H2463       H  0.97166228  0.01061220  0.84655292     0.10500
C2464       C  0.00648247  0.01875946  0.88435192     0.03700
C2465       C  0.00528493  0.01801504  0.90664689    -0.12700
C2466       C  0.00106617  0.99879631  0.91743696    -0.08400
C2467       C  0.99836833  0.97987418  0.90539769     0.07200
C2468       C  0.99926520  0.98073397  0.88311593    -0.13500
S2469       S  0.01237113  0.04359809  0.87099051    -0.30400
H2470       H  0.00753297  0.03250810  0.91573331     0.11400
S2471       S  0.99501330  0.95398505  0.91740410    -0.27500
H2472       H  0.99713940  0.96624543  0.87395975     0.08600
H2473       H  0.97195448  0.02577332  0.78541604     0.27100
H2474       H  0.01365427  0.05630679  0.88940147     0.21900
H2475       H  0.00990797  0.95756429  0.93376696     0.27200
H2476       H  0.04454318  0.99898701  0.86916615     0.16000
C2477       C  0.01605469  0.16348350  0.01317774    -0.11300
C2478       C  0.00840642  0.15200701  0.99560848     0.15300
C2479       C  0.00077365  0.16318599  0.97764827     0.02200
C2480       C  0.00015389  0.18550698  0.97798373    -0.15600
C2481       C  0.00737052  0.19699733  0.99574769    -0.10400
C2482       C  0.01592711  0.18581485  0.01330445     0.08900
C2483       C  0.00731616  0.12845460  0.99696577     0.09900
S2484       S  0.99127787  0.14986089  0.95403342    -0.24700
H2485       H  0.99376612  0.19399540  0.96437708     0.20200
S2486       S  0.02710736  0.19911672  0.03618826    -0.30400
H2487       H  0.02210277  0.15495677  0.02690996     0.10500
C2488       C  0.02542663  0.11557890  0.99371528     0.03700
C2489       C  0.02335181  0.09326996  0.99450545    -0.12700
C2490       C  0.00350467  0.08353993  0.99861675    -0.08400
C2491       C  0.98540659  0.09667117  0.00179411     0.07200
C2492       C  0.98756826  0.11887054  0.00115003    -0.13500
S2493       S  0.05102018  0.12760186  0.98809572    -0.30400
H2494       H  0.03727603  0.08335327  0.99205901     0.11400
S2495       S  0.95888601  0.08623828  0.00549561    -0.27500
H2496       H  0.97361666  0.12880615  0.00345120     0.08600
H2497       H  0.03460513  0.21710737  0.02508438     0.27100
H2498       H  0.06250292  0.10845821  0.98591840     0.21900
H2499       H  0.96107698  0.07024733  0.98992307     0.27200
H2500       H  0.00476979  0.13204393  0.95564439     0.16000
C2501       C  0.11686056  0.01613933  0.99443731    -0.11300
C2502       C  0.12753515  0.99708623  0.99898606     0.15300
C2503       C  0.11561821  0.97865715  0.00415366     0.02200
C2504       C  0.09329319  0.97980113  0.00465468    -0.15600
C2505       C  0.08249159  0.99890566  0.00011220    -0.10400
C2506       C  0.09460400  0.01734799  0.99509762     0.08900
C2507       C  0.15108795  0.99724884  0.99830483     0.09900
S2508       S  0.12760113  0.95305121  0.00970642    -0.24700
H2509       H  0.08425989  0.96552228  0.00834984     0.20200
S2510       S  0.08289481  0.04315397  0.99020594    -0.30400
H2511       H  0.12601921  0.03030881  0.99060885     0.10500
C2512       C  0.16230340  0.99219549  0.97953104     0.03700
C2513       C  0.18467999  0.99284293  0.97954409    -0.12700
C2514       C  0.19599242  0.99868639  0.99791957    -0.08400
C2515       C  0.18463649  0.00446259  0.01649852     0.07200
C2516       C  0.16233675  0.00345670  0.01655660    -0.13500
S2517       S  0.14807369  0.98492403  0.95563003    -0.30400
H2518       H  0.19345581  0.98854759  0.96530828     0.11400
S2519       S  0.19761793  0.01378604  0.04037234    -0.27500
H2520       H  0.15363769  0.00779774  0.03084754     0.08600
H2521       H  0.06776272  0.04152700  0.00670463     0.27100
H2522       H  0.16603922  0.98369696  0.94223305     0.21900
H2523       H  0.21506260  0.02341838  0.03004482     0.27200
H2524       H  0.14869067  0.95977504  0.01295745     0.16000
C2525       C  0.01680188  0.00730205  0.16348602    -0.11300
C2526       C  0.99760638  0.00389151  0.15254647     0.15300
C2527       C  0.97850829  0.00161051  0.16430971     0.02200
C2528       C  0.97912707  0.00222186  0.18662501    -0.15600
C2529       C  0.99834549  0.00560030  0.19765460    -0.10400
C2530       C  0.01734477  0.00855535  0.18577740     0.08900
C2531       C  0.99804801  0.00311332  0.12889408     0.09900
S2532       S  0.95289952  0.99771396  0.15183978    -0.24700
H2533       H  0.96443950  0.99997244  0.19549926     0.20200
S2534       S  0.04261835  0.01484468  0.19795312    -0.30400
H2535       H  0.03144765  0.00942445  0.15451969     0.10500
C2536       C  0.99778405  0.02194448  0.11667292     0.03700
C2537       C  0.99808939  0.02064726  0.09434282    -0.12700
C2538       C  0.99906799  0.00087336  0.08382094    -0.08400
C2539       C  0.99942784  0.98196787  0.09620755     0.07200
C2540       C  0.99898128  0.98332132  0.11852673    -0.13500
S2541       S  0.99683055  0.04765909  0.12958941    -0.30400
H2542       H  0.99784019  0.03514808  0.08500064     0.11400
S2543       S  0.99964188  0.95564927  0.08462948    -0.27500
H2544       H  0.99915528  0.96882085  0.12790901     0.08600
H2545       H  0.03399305  0.02639556  0.21512195     0.27100
H2546       H  0.99820576  0.06005630  0.11097451     0.21900
H2547       H  0.98560344  0.96068030  0.06791466     0.27200
H2548       H  0.95723279  0.00977956  0.13349122     0.16000
C2549       C  0.01805589  0.66688054  0.50163629    -0.11300
C2550       C  0.99877864  0.65625268  0.49767313     0.15300
C2551       C  0.97993791  0.66827286  0.49478162     0.02200
C2552       C  0.98097625  0.69057972  0.49521408    -0.15600
C2553       C  0.00029739  0.70125924  0.49906746    -0.10400
C2554       C  0.01897789  0.68915066  0.50268434     0.08900
C2555       C  0.99885087  0.63264474  0.49738395     0.09900
S2556       S  0.95409835  0.65624640  0.49058870    -0.24700
H2557       H  0.96654907  0.69971901  0.49255997     0.20200
S2558       S  0.04426905  0.70103402  0.50955228    -0.30400
H2559       H  0.03245916  0.65769442  0.50428265     0.10500
C2560       C  0.99646155  0.62097781  0.47835216     0.03700
C2561       C  0.99639080  0.59859646  0.47907341    -0.12700
C2562       C  0.99892385  0.58762960  0.49842209    -0.08400
C2563       C  0.00113118  0.59948083  0.51749067     0.07200
C2564       C  0.00136557  0.62176614  0.51669559    -0.13500
S2565       S  0.99418325  0.63457746  0.45311135    -0.30400
H2566       H  0.99482013  0.58957759  0.46445941     0.11400
S2567       S  0.00267088  0.58728139  0.54345061    -0.27500
H2568       H  0.00302519  0.63075768  0.53133892     0.08600
H2569       H  0.03559736  0.71822398  0.52105131     0.27100
H2570       H  0.99247654  0.61620444  0.44036731     0.21900
H2571       H  0.98788536  0.57099918  0.53894574     0.27200
H2572       H  0.95820847  0.63697884  0.50121674     0.16000
C2573       C  0.83764263  0.52218057  0.49811644    -0.11300
C2574       C  0.84890471  0.50324480  0.50201535     0.15300
C2575       C  0.83740251  0.48428221  0.50609778     0.02200
C2576       C  0.81505694  0.48472042  0.50627702    -0.15600
C2577       C  0.80378224  0.50360296  0.50209675    -0.10400
C2578       C  0.81530966  0.52249899  0.49772916     0.08900
C2579       C  0.87258557  0.50386520  0.50174962     0.09900
S2580       S  0.85022647  0.45901312  0.51098409    -0.24700
H2581       H  0.80634520  0.47014624  0.50960430     0.20200
S2582       S  0.80256468  0.54731503  0.49079735    -0.30400
H2583       H  0.84637601  0.53677268  0.49492965     0.10500
C2584       C  0.88399261  0.50781004  0.48278558     0.03700
C2585       C  0.90636359  0.50844239  0.48322305    -0.12700
C2586       C  0.91772212  0.50519480  0.50222966    -0.08400
C2587       C  0.90614956  0.50171976  0.52133276     0.07200
C2588       C  0.88381125  0.50084363  0.52080958    -0.13500
S2589       S  0.87010778  0.51124535  0.45782428    -0.30400
H2590       H  0.91508696  0.51103961  0.46856512     0.11400
S2591       S  0.91872170  0.49935809  0.54703432    -0.27500
H2592       H  0.87505155  0.49818630  0.53546089     0.08600
H2593       H  0.78517868  0.53803891  0.48010410     0.27100
H2594       H  0.88827824  0.51440516  0.44503299     0.21900
H2595       H  0.93417535  0.51517660  0.54310087     0.27200
H2596       H  0.86813662  0.46278261  0.49801826     0.16000
C2597       C  0.02088059  0.51286434  0.61548298    -0.11300
C2598       C  0.00146000  0.51018329  0.62627088     0.15300
C2599       C  0.98274836  0.50609457  0.61447642     0.02200
C2600       C  0.98392033  0.50436544  0.59229357    -0.15600
C2601       C  0.00333250  0.50702487  0.58136849    -0.10400
C2602       C  0.02209160  0.51109847  0.59326416     0.08900
C2603       C  0.00148965  0.51028788  0.64986035     0.09900
S2604       S  0.95691082  0.50284434  0.62676168    -0.24700
H2605       H  0.96938782  0.50138988  0.58344078     0.20200
S2606       S  0.04820384  0.51294777  0.58131581    -0.30400
H2607       H  0.03533105  0.51565721  0.62452613     0.10500
C2608       C  0.00058425  0.49112575  0.66150735     0.03700
C2609       C  0.00043712  0.49184210  0.68381877    -0.12700
C2610       C  0.00167560  0.51132442  0.69487229    -0.08400
C2611       C  0.00325486  0.53050056  0.68305138     0.07200
C2612       C  0.00285257  0.52977080  0.66073765    -0.13500
S2613       S  0.00006392  0.46571948  0.64792978    -0.30400
H2614       H  0.99933296  0.47712137  0.69275854     0.11400
S2615       S  0.00689565  0.55625291  0.69529907    -0.27500
H2616       H  0.00394468  0.54448041  0.65174527     0.08600
H2617       H  0.04463181  0.49664538  0.56633155     0.27100
H2618       H  0.00085240  0.45285210  0.66625433     0.21900
H2619       H  0.01940237  0.54878865  0.71230753     0.27200
H2620       H  0.96084619  0.51597986  0.64445900     0.16000
C2621       C  0.11847799  0.52173328  0.49902502    -0.11300
C2622       C  0.12845573  0.50189259  0.49648677     0.15300
C2623       C  0.11584240  0.48346350  0.49364148     0.02200
C2624       C  0.09363099  0.48535671  0.49277704    -0.15600
C2625       C  0.08351617  0.50518532  0.49541268    -0.10400
C2626       C  0.09623140  0.52363129  0.49836657     0.08900
C2627       C  0.15203663  0.50105113  0.49645908     0.09900
S2628       S  0.12704495  0.45704731  0.49145698    -0.24700
H2629       H  0.08412410  0.47105281  0.49076794     0.20200
S2630       S  0.08524770  0.55011565  0.50046588    -0.30400
H2631       H  0.12814918  0.53592117  0.50109340     0.10500
C2632       C  0.16368567  0.49757316  0.47756158     0.03700
C2633       C  0.18603286  0.49690029  0.47835697    -0.12700
C2634       C  0.19696945  0.49966898  0.49766619    -0.08400
C2635       C  0.18520297  0.50348047  0.51652489     0.07200
C2636       C  0.16291072  0.50400936  0.51571342    -0.13500
S2637       S  0.15012642  0.49440460  0.45239360    -0.30400
H2638       H  0.19507797  0.49409121  0.46392322     0.11400
S2639       S  0.19759385  0.50837467  0.54197904    -0.27500
H2640       H  0.15392990  0.50687468  0.53019178     0.08600
H2641       H  0.06910544  0.54673914  0.48528479     0.27100
H2642       H  0.16831980  0.48943408  0.44023036     0.21900
H2643       H  0.21567360  0.51886551  0.53380097     0.27200
H2644       H  0.14525708  0.46096132  0.50389183     0.16000
C2645       C  0.99480372  0.34356425  0.52393046    -0.11300
C2646       C  0.99993019  0.35372067  0.50467162     0.15300
C2647       C  0.00476305  0.34125894  0.48657656     0.02200
C2648       C  0.00444755  0.31901984  0.48812585    -0.15600
C2649       C  0.99911318  0.30881520  0.50729063    -0.10400
C2650       C  0.99417866  0.32122649  0.52539491     0.08900
C2651       C  0.00017110  0.37731871  0.50391394     0.09900
S2652       S  0.01118531  0.35272423  0.46100759    -0.24700
H2653       H  0.00816875  0.30954265  0.47417364     0.20200
S2654       S  0.98615293  0.30875629  0.55006683    -0.30400
H2655       H  0.99111987  0.35323198  0.53774281     0.10500
C2656       C  0.98110828  0.38919023  0.50473723     0.03700
C2657       C  0.98201367  0.41151883  0.50370375    -0.12700
C2658       C  0.00155687  0.42224728  0.50125739    -0.08400
C2659       C  0.02060246  0.41020543  0.50013440     0.07200
C2660       C  0.01973389  0.38796169  0.50177053    -0.13500
S2661       S  0.95557906  0.37587093  0.50629671    -0.30400
H2662       H  0.96739871  0.42067672  0.50442116     0.11400
S2663       S  0.04649526  0.42238988  0.49772413    -0.27500
H2664       H  0.03438955  0.37883417  0.50114601     0.08600
H2665       H  0.98093488  0.32762702  0.56100541     0.27100
H2666       H  0.94286653  0.39426771  0.50461567     0.21900
H2667       H  0.04276698  0.42894596  0.47662451     0.27200
H2668       H  0.99837726  0.37098995  0.46315260     0.16000
C2669       C  0.00433869  0.48520784  0.38098400    -0.11300
C2670       C  0.99579009  0.50275105  0.37011546     0.15300
C2671       C  0.98763243  0.52003283  0.38203843     0.02200
C2672       C  0.98824170  0.51938075  0.40434610    -0.15600
C2673       C  0.99750185  0.50215102  0.41536475    -0.10400
C2674       C  0.00566730  0.48483971  0.40324377     0.08900
C2675       C  0.99559405  0.50245989  0.34640666     0.09900
S2676       S  0.97677521  0.54366653  0.36979646    -0.24700
H2677       H  0.98194714  0.53285308  0.41313136     0.20200
S2678       S  0.01754930  0.46150204  0.41494934    -0.30400
H2679       H  0.01035341  0.47175159  0.37196836     0.10500
C2680       C  0.01472737  0.50202237  0.33452643     0.03700
C2681       C  0.01387340  0.50162098  0.31220419    -0.12700
C2682       C  0.99431868  0.50206829  0.30130314    -0.08400
C2683       C  0.97515984  0.50309860  0.31327604     0.07200
C2684       C  0.97601452  0.50281245  0.33558525    -0.13500
S2685       S  0.04033992  0.50257043  0.34770057    -0.30400
H2686       H  0.02854836  0.50080021  0.30313802     0.11400
S2687       S  0.94919414  0.50581100  0.30121957    -0.27500
H2688       H  0.96128635  0.50334027  0.34462521     0.08600
H2689       H  0.03552209  0.47289065  0.42213729     0.27100
H2690       H  0.05296153  0.50382354  0.32920380     0.21900
H2691       H  0.95621673  0.51787695  0.28367701     0.27200
H2692       H  0.99042444  0.54353492  0.35200750     0.16000
C2693       C  0.51418448  0.87998172  0.50348255    -0.11300
C2694       C  0.49424927  0.86982010  0.50373989     0.15300
C2695       C  0.47552911  0.88224814  0.50519307     0.02200
C2696       C  0.47713976  0.90449980  0.50598646    -0.15600
C2697       C  0.49704453  0.91476613  0.50515580    -0.10400
C2698       C  0.51580891  0.90223842  0.50448563     0.08900
C2699       C  0.49357583  0.84623142  0.50367366     0.09900
S2700       S  0.44912199  0.87078267  0.50606833    -0.24700
H2701       H  0.46265386  0.91390706  0.50662228     0.20200
S2702       S  0.54223087  0.91354827  0.50605882    -0.30400
H2703       H  0.52859667  0.87045042  0.50297011     0.10500
C2704       C  0.49561281  0.83446190  0.48467050     0.03700
C2705       C  0.49488733  0.81208509  0.48542183    -0.12700
C2706       C  0.49209853  0.80123108  0.50482391    -0.08400
C2707       C  0.48956394  0.81322386  0.52377080     0.07200
C2708       C  0.49060034  0.83550054  0.52299923    -0.13500
S2709       S  0.49886610  0.84799810  0.45949089    -0.30400
H2710       H  0.49682501  0.80296251  0.47090877     0.11400
S2711       S  0.48423810  0.80120998  0.54932797    -0.27500
H2712       H  0.48875745  0.84460435  0.53755754     0.08600
H2713       H  0.53648601  0.93033971  0.51978313     0.27100
H2714       H  0.49918746  0.82959969  0.44667331     0.21900
H2715       H  0.47244955  0.78389557  0.54130143     0.27200
H2716       H  0.45387289  0.85202461  0.49480121     0.16000
C2717       C  0.66101440  0.97979300  0.49726765    -0.11300
C2718       C  0.64944876  0.99860322  0.50092389     0.15300
C2719       C  0.66060012  0.01770877  0.50527354     0.02200
C2720       C  0.68288436  0.01748079  0.50629575    -0.15600
C2721       C  0.69445003  0.99869191  0.50259597    -0.10400
C2722       C  0.68333517  0.97970872  0.49763033     0.08900
C2723       C  0.62581630  0.99762874  0.50091832     0.09900
S2724       S  0.64738731  0.04290022  0.50952733    -0.24700
H2725       H  0.69131762  0.03211964  0.51000631     0.20200
S2726       S  0.69662275  0.95504495  0.49109237    -0.30400
H2727       H  0.65255352  0.96508295  0.49392167     0.10500
C2728       C  0.61423703  0.99243384  0.48239027     0.03700
C2729       C  0.59188348  0.99173795  0.48322155    -0.12700
C2730       C  0.58077588  0.99632620  0.50213451    -0.08400
C2731       C  0.59251969  0.00104937  0.52079727     0.07200
C2732       C  0.61480723  0.00177506  0.51992120    -0.13500
S2733       S  0.62781410  0.98769334  0.45742559    -0.30400
H2734       H  0.58296889  0.98817792  0.46889967     0.11400
S2735       S  0.58022131  0.00544498  0.54640268    -0.27500
H2736       H  0.62371242  0.00537375  0.53426587     0.08600
H2737       H  0.71465629  0.96450623  0.48165913     0.27100
H2738       H  0.60949387  0.98375956  0.44512016     0.21900
H2739       H  0.56451008  0.98961476  0.54380012     0.27200
H2740       H  0.63010526  0.03882056  0.49586646     0.16000
C2741       C  0.47962089  0.99796689  0.61719142    -0.11300
C2742       C  0.49887350  0.00234296  0.62764864     0.15300
C2743       C  0.51730689  0.00675722  0.61545674     0.02200
C2744       C  0.51599446  0.00696053  0.59318079    -0.15600
C2745       C  0.49675480  0.00237766  0.58259804    -0.10400
C2746       C  0.47826633  0.99819239  0.59493364     0.08900
C2747       C  0.49897470  0.00253900  0.65126364     0.09900
S2748       S  0.54301331  0.01195219  0.62728777    -0.24700
H2749       H  0.53032846  0.01009585  0.58402836     0.20200
S2750       S  0.45224349  0.99404892  0.58344063    -0.30400
H2751       H  0.46539170  0.99481712  0.62650046     0.10500
C2752       C  0.49937066  0.02176147  0.66289611     0.03700
C2753       C  0.49918200  0.02110942  0.68525798    -0.12700
C2754       C  0.49828269  0.00161098  0.69628105    -0.08400
C2755       C  0.49722624  0.98239391  0.68445863     0.07200
C2756       C  0.49784638  0.98308351  0.66218138    -0.13500
S2757       S  0.49962691  0.04710899  0.64924303    -0.30400
H2758       H  0.49986636  0.03583008  0.69423903     0.11400
S2759       S  0.49412808  0.95653898  0.69668784    -0.27500
H2760       H  0.49710674  0.96832613  0.65322924     0.08600
H2761       H  0.45474190  0.00965650  0.56752840     0.27100
H2762       H  0.49963034  0.06002337  0.66755964     0.21900
H2763       H  0.48165833  0.96369666  0.71389821     0.27200
H2764       H  0.53979935  0.99979922  0.64581306     0.16000
C2765       C  0.47937720  0.15981843  0.49183022    -0.11300
C2766       C  0.49890012  0.14906853  0.49354911     0.15300
C2767       C  0.51803945  0.16095957  0.49429042     0.02200
C2768       C  0.51715912  0.18325393  0.49434149    -0.15600
C2769       C  0.49760352  0.19407361  0.49303652    -0.10400
C2770       C  0.47851861  0.18211677  0.49128025     0.08900
C2771       C  0.49874063  0.12547376  0.49443373     0.09900
S2772       S  0.54403821  0.14868325  0.49528591    -0.24700
H2773       H  0.53187599  0.19226412  0.49558031     0.20200
S2774       S  0.45266042  0.19424228  0.48779667    -0.30400
H2775       H  0.46468814  0.15072894  0.49082623     0.10500
C2776       C  0.50342252  0.11434183  0.51333140     0.03700
C2777       C  0.50356844  0.09195695  0.51319397    -0.12700
C2778       C  0.49897520  0.08035883  0.49455976    -0.08400
C2779       C  0.49432249  0.09175314  0.47563303     0.07200
C2780       C  0.49397446  0.11406115  0.47588197    -0.13500
S2781       S  0.50849555  0.12863330  0.53778804    -0.30400
H2782       H  0.50687435  0.08344240  0.52780647     0.11400
S2783       S  0.48982672  0.07902585  0.45036144    -0.27500
H2784       H  0.49052528  0.12265221  0.46131921     0.08600
H2785       H  0.46006753  0.21217321  0.47654286     0.27100
H2786       H  0.51348694  0.11072180  0.55030022     0.21900
H2787       H  0.50647877  0.06424007  0.45304559     0.27200
H2788       H  0.53854120  0.13028152  0.48374285     0.16000
C2789       C  0.38027039  0.00354219  0.48191182    -0.11300
C2790       C  0.36984856  0.00023160  0.50140054     0.15300
C2791       C  0.38209780  0.99621489  0.51979675     0.02200
C2792       C  0.40437796  0.99542927  0.51827872    -0.15600
C2793       C  0.41498927  0.99904822  0.49883676    -0.10400
C2794       C  0.40257952  0.00314711  0.48043846     0.08900
C2795       C  0.34619365  0.00031011  0.50186682     0.09900
S2796       S  0.37029274  0.99203526  0.54568305    -0.24700
H2797       H  0.41352356  0.99237094  0.53258659     0.20200
S2798       S  0.41411257  0.00667950  0.45442608    -0.30400
H2799       H  0.37090525  0.00634975  0.46769184     0.10500
C2800       C  0.33451692  0.01945931  0.50059142     0.03700
C2801       C  0.31211767  0.01877167  0.50086698    -0.12700
C2802       C  0.30109813  0.99930860  0.50260984    -0.08400
C2803       C  0.31295938  0.98020199  0.50459540     0.07200
C2804       C  0.33528247  0.98089510  0.50386654    -0.13500
S2805       S  0.34818398  0.04478177  0.49903394    -0.30400
H2806       H  0.30310298  0.03342166  0.49945146     0.11400
S2807       S  0.30070150  0.95455408  0.50898694    -0.27500
H2808       H  0.34427181  0.96620222  0.50521425     0.08600
H2809       H  0.42223852  0.02697829  0.45952756     0.27100
H2810       H  0.32985180  0.05769118  0.49968578     0.21900
H2811       H  0.28342958  0.96240809  0.52096280     0.27200
H2812       H  0.35231757  0.00501331  0.54244551     0.16000
C2813       C  0.50190705  0.00740466  0.38145837    -0.11300
C2814       C  0.50211372  0.98713754  0.37207993     0.15300
C2815       C  0.50196906  0.96887762  0.38525945     0.02200
C2816       C  0.50157931  0.97137157  0.40746851    -0.15600
C2817       C  0.50080494  0.99170008  0.41690179    -0.10400
C2818       C  0.50114429  0.00985911  0.40357792     0.08900
C2819       C  0.50259038  0.98587961  0.34853181     0.09900
S2820       S  0.50229050  0.94202513  0.37489800    -0.24700
H2821       H  0.50143513  0.95729284  0.41747107     0.20200
S2822       S  0.50222842  0.03652917  0.41390878    -0.30400
H2823       H  0.50233956  0.02145471  0.37141637     0.10500
C2824       C  0.48389049  0.98874742  0.33647362     0.03700
C2825       C  0.48516356  0.98914133  0.31417564    -0.12700
C2826       C  0.50477176  0.98652232  0.30358170    -0.08400
C2827       C  0.52336282  0.98267763  0.31578712     0.07200
C2828       C  0.52211022  0.98272799  0.33808060    -0.13500
S2829       S  0.45840898  0.99195784  0.34955738    -0.30400
H2830       H  0.47088477  0.99199305  0.30492126     0.11400
S2831       S  0.54898469  0.97700325  0.30398624    -0.27500
H2832       H  0.53644598  0.98024422  0.34737990     0.08600
H2833       H  0.48092314  0.03588431  0.42097495     0.27100
H2834       H  0.44597322  0.99295245  0.33095754     0.21900
H2835       H  0.54084056  0.96687562  0.28573866     0.27200
H2836       H  0.49373233  0.94653381  0.35475137     0.16000
C2837       C  0.50676983  0.61419611  0.01688444    -0.11300
C2838       C  0.50400044  0.62508562  0.99760702     0.15300
C2839       C  0.50164280  0.61328897  0.97859103     0.02200
C2840       C  0.50122210  0.59095565  0.97939432    -0.15600
C2841       C  0.50378390  0.57995439  0.99872238    -0.10400
C2842       C  0.50650133  0.59187418  0.01770613     0.08900
C2843       C  0.50242371  0.64867485  0.99806072     0.09900
S2844       S  0.49923948  0.62578868  0.95282563    -0.24700
H2845       H  0.49937150  0.58208148  0.96470416     0.20200
S2846       S  0.50843925  0.57972466  0.04365229    -0.30400
H2847       H  0.50842902  0.62319398  0.03152831     0.10500
C2848       C  0.48272415  0.65909237  0.99508904     0.03700
C2849       C  0.48195113  0.68143973  0.99532681    -0.12700
C2850       C  0.50042704  0.69364275  0.99872512    -0.08400
C2851       C  0.52003251  0.68313317  0.00243975     0.07200
C2852       C  0.52083550  0.66080623  0.00190288    -0.13500
S2853       S  0.45848144  0.64392694  0.99142977    -0.30400
H2854       H  0.46692648  0.68951683  0.99267168     0.11400
S2855       S  0.54439798  0.69719968  0.00851670    -0.27500
H2856       H  0.53590501  0.65279514  0.00458930     0.08600
H2857       H  0.49302041  0.56391012  0.03961150     0.27100
H2858       H  0.44474787  0.66144432  0.98871916     0.21900
H2859       H  0.53460043  0.71447796  0.01892183     0.27200
H2860       H  0.51093617  0.64425522  0.95783067     0.16000
C2861       C  0.62250766  0.49124467  0.98301909    -0.11300
C2862       C  0.63266066  0.49387781  0.00271087     0.15300
C2863       C  0.62018401  0.49825193  0.02094644     0.02200
C2864       C  0.59797950  0.49995252  0.01907217    -0.15600
C2865       C  0.58770254  0.49705315  0.99939743    -0.10400
C2866       C  0.60032742  0.49297116  0.98111951     0.08900
C2867       C  0.65632933  0.49370287  0.00337456     0.09900
S2868       S  0.63159089  0.50148995  0.04710359    -0.24700
H2869       H  0.58860341  0.50299524  0.03326166     0.20200
S2870       S  0.58941095  0.49117066  0.95470224    -0.30400
H2871       H  0.63203937  0.48845530  0.96887655     0.10500
C2872       C  0.66820412  0.47501108  0.99939097     0.03700
C2873       C  0.69060707  0.47584691  0.99993179    -0.12700
C2874       C  0.70138295  0.49500330  0.00434871    -0.08400
C2875       C  0.68936199  0.51358507  0.00871180     0.07200
C2876       C  0.66708206  0.51278508  0.00787635    -0.13500
S2877       S  0.65484791  0.45004875  0.99399589    -0.30400
H2878       H  0.69982074  0.46162181  0.99663192     0.11400
S2879       S  0.70140188  0.53867112  0.01604373    -0.27500
H2880       H  0.65798728  0.52714205  0.01100637     0.08600
H2881       H  0.57461526  0.50775050  0.95780786     0.27100
H2882       H  0.67336340  0.43770399  0.99115145     0.21900
H2883       H  0.71888045  0.52972620  0.02684725     0.27200
H2884       H  0.64900243  0.48774069  0.04384764     0.16000
C2885       C  0.50492717  0.47729667  0.83543243    -0.11300
C2886       C  0.50213821  0.49607849  0.84725504     0.15300
C2887       C  0.49999021  0.51571607  0.83646600     0.02200
C2888       C  0.49946165  0.51599986  0.81422908    -0.15600
C2889       C  0.50190508  0.49720723  0.80233645    -0.10400
C2890       C  0.50518746  0.47768815  0.81312971     0.08900
C2891       C  0.50206434  0.49486498  0.87079228     0.09900
S2892       S  0.49810759  0.54097511  0.85011005    -0.24700
H2893       H  0.49720982  0.53107452  0.80609502     0.20200
S2894       S  0.51056815  0.45296294  0.79945776    -0.30400
H2895       H  0.50715839  0.46227211  0.84366363     0.10500
C2896       C  0.48352854  0.49904735  0.88280510     0.03700
C2897       C  0.48475917  0.49956978  0.90512026    -0.12700
C2898       C  0.50412693  0.49574445  0.91574533    -0.08400
C2899       C  0.52257875  0.49118444  0.90348261     0.07200
C2900       C  0.52125864  0.49052890  0.88127136    -0.13500
S2901       S  0.45823297  0.50323283  0.86970763    -0.30400
H2902       H  0.47050851  0.50269882  0.91434678     0.11400
S2903       S  0.54860661  0.48744156  0.91491873    -0.27500
H2904       H  0.53552769  0.48745888  0.87201134     0.08600
H2905       H  0.52135964  0.46225601  0.78213000     0.27100
H2906       H  0.44624933  0.50734373  0.88820929     0.21900
H2907       H  0.54643307  0.50443833  0.92938649     0.27200
H2908       H  0.51099675  0.53529968  0.86750381     0.16000
C2909       C  0.49572120  0.48233767  0.16050275    -0.11300
C2910       C  0.50265629  0.50060234  0.14961052     0.15300
C2911       C  0.50861231  0.51889981  0.16136221     0.02200
C2912       C  0.50832299  0.51819155  0.18365049    -0.15600
C2913       C  0.50163838  0.49981008  0.19451521    -0.10400
C2914       C  0.49488119  0.48183998  0.18275706     0.08900
C2915       C  0.50314199  0.50006285  0.12602815     0.09900
S2916       S  0.51651705  0.54362405  0.14893343    -0.24700
H2917       H  0.51327207  0.53211245  0.19262040     0.20200
S2918       S  0.48464421  0.45799390  0.19518814    -0.30400
H2919       H  0.49077079  0.46840238  0.15155833     0.10500
C2920       C  0.52249181  0.50011234  0.11455228     0.03700
C2921       C  0.52201068  0.49990532  0.09220730    -0.12700
C2922       C  0.50258281  0.49920684  0.08108003    -0.08400
C2923       C  0.48322957  0.49908357  0.09269434     0.07200
C2924       C  0.48374358  0.49929388  0.11496777    -0.13500
S2925       S  0.54776863  0.49955683  0.12833705    -0.30400
H2926       H  0.53683069  0.49978163  0.08333461     0.11400
S2927       S  0.45738148  0.49961950  0.08013504    -0.27500
H2928       H  0.46887438  0.49930353  0.12378755     0.08600
H2929       H  0.47541629  0.46824372  0.21285918     0.27100
H2930       H  0.56082987  0.49990101  0.11010593     0.21900
H2931       H  0.46353792  0.51323015  0.06340580     0.27200
H2932       H  0.50394241  0.54125804  0.13057174     0.16000
C2933       C  0.38710976  0.51392343  0.99800305    -0.11300
C2934       C  0.37626428  0.49438480  0.99736993     0.15300
C2935       C  0.38810545  0.47522091  0.99709070     0.02200
C2936       C  0.41046431  0.47605408  0.99784389    -0.15600
C2937       C  0.42137561  0.49564421  0.99842277    -0.10400
C2938       C  0.40941444  0.51477125  0.99879349     0.08900
C2939       C  0.35262475  0.49466889  0.99801913     0.09900
S2940       S  0.37568771  0.44926992  0.99586654    -0.24700
H2941       H  0.41943452  0.46129057  0.99753323     0.20200
S2942       S  0.42153655  0.54071411  0.00155503    -0.30400
H2943       H  0.37806886  0.52863959  0.99852940     0.10500
C2944       C  0.34135781  0.49118314  0.01714147     0.03700
C2945       C  0.31896300  0.49196233  0.01712423    -0.12700
C2946       C  0.30757989  0.49644830  0.99839651    -0.08400
C2947       C  0.31903629  0.50070714  0.97941127     0.07200
C2948       C  0.34134817  0.49951218  0.97938957    -0.13500
S2949       S  0.35554886  0.48602998  0.04160579    -0.30400
H2950       H  0.31023623  0.48883514  0.03168076     0.11400
S2951       S  0.30626047  0.50861663  0.95492964    -0.27500
H2952       H  0.35004101  0.50270255  0.96480723     0.08600
H2953       H  0.43768016  0.53398841  0.01557310     0.27100
H2954       H  0.33757198  0.48582955  0.05504130     0.21900
H2955       H  0.28937051  0.51972309  0.96467141     0.27200
H2956       H  0.35701395  0.45570876  0.98533300     0.16000
C2957       C  0.50674910  0.37955734  0.01809722    -0.11300
C2958       C  0.50985882  0.36890557  0.99868630     0.15300
C2959       C  0.51216167  0.38098430  0.97982796     0.02200
C2960       C  0.51167541  0.40328208  0.98087941    -0.15600
C2961       C  0.50834290  0.41401313  0.00025800    -0.10400
C2962       C  0.50620958  0.40187509  0.01914771     0.08900
C2963       C  0.51035772  0.34523764  0.99871162     0.09900
S2964       S  0.51526927  0.36904135  0.95385179    -0.24700
H2965       H  0.51327066  0.41233279  0.96626528     0.20200
S2966       S  0.50380853  0.41377696  0.04517685    -0.30400
H2967       H  0.50512438  0.37037711  0.03262800     0.10500
C2968       C  0.52925446  0.33370317  0.99465006     0.03700
C2969       C  0.52865365  0.31129724  0.99444002    -0.12700
C2970       C  0.50960708  0.30016184  0.99849183    -0.08400
C2971       C  0.49092282  0.31182005  0.00340868     0.07200
C2972       C  0.49146000  0.33413386  0.00321495    -0.13500
S2973       S  0.55419979  0.34747105  0.99022347    -0.30400
H2974       H  0.54301643  0.30235974  0.99096294     0.11400
S2975       S  0.46607829  0.29925651  0.01074491    -0.27500
H2976       H  0.47702619  0.34296389  0.00675367     0.08600
H2977       H  0.51829811  0.43043649  0.04106602     0.27100
H2978       H  0.56664419  0.32922648  0.98629977     0.21900
H2979       H  0.47535415  0.28148783  0.02076005     0.27200
H2980       H  0.50416094  0.35008695  0.95831267     0.16000
loop_ 
_geom_bond_atom_site_label_1 
_geom_bond_atom_site_label_2 
_geom_bond_distance 
_geom_bond_site_symmetry_2 
_ccdc_geom_bond_type 
Zn1           O5   1.960       .  S
Zn1           O6   2.015       .  S
Zn1          O10   2.013       .  S
Zn1          O17   2.021       .  S
Zn2           O5   1.966       .  S
Zn2           O7   2.027       .  S
Zn2           O9   2.029       .  S
Zn2          O13   2.033       .  S
Zn3           O5   1.969   1_554  S
Zn3           O8   2.030       .  S
Zn3          O11   2.030       .  S
Zn3          O14   2.025       .  S
Zn4           O5   1.964   1_554  S
Zn4          O12   2.015       .  S
Zn4          O15   2.020       .  S
Zn4          O16   2.025       .  S
O6           C18   1.273       .  A
O7           C19   1.275       .  A
O8           C20   1.275   1_554  A
O9           C18   1.276       .  A
O10          C20   1.273       .  A
O11          C19   1.275   1_554  A
O12          C21   1.273       .  A
O13          C22   1.275       .  A
O14          C21   1.275       .  A
O15          C22   1.274   1_554  A
O16          C23   1.274   1_554  A
O17          C23   1.273       .  A
C18        C2898   1.486       .  S
C19        C2937   1.483       .  S
C20        C2961   1.484   1_556  S
C21        C2922   1.479       .  S
C22        C2841   1.485       .  S
C23        C2865   1.486       .  S
Zn24         O28   1.964       .  S
Zn24         O29   2.015       .  S
Zn24         O33   2.027       .  S
Zn24         O40   2.015       .  S
Zn25         O28   1.964   1_545  S
Zn25         O30   2.021       .  S
Zn25         O32   2.015       .  S
Zn25         O36   2.024       .  S
Zn26         O28   1.964   1_545  S
Zn26         O31   2.030       .  S
Zn26         O34   2.026       .  S
Zn26         O37   2.028       .  S
Zn27         O28   1.963       .  S
Zn27         O35   2.021       .  S
Zn27         O38   2.022       .  S
Zn27         O39   2.024       .  S
O29          C41   1.274       .  A
O30          C42   1.275       .  A
O31          C43   1.275   1_545  A
O32          C41   1.273   1_545  A
O33          C43   1.274       .  A
O34          C42   1.274       .  A
O35          C44   1.275       .  A
O36          C45   1.274       .  A
O37          C44   1.274   1_545  A
O38          C45   1.274   1_565  A
O39          C46   1.274       .  A
O40          C46   1.273       .  A
C41        C2730   1.481       .  S
C42        C2778   1.488       .  S
C43        C2817   1.485       .  S
C44        C2793   1.490       .  S
C45        C2745   1.487       .  S
C46        C2697   1.480       .  S
Zn47         O51   1.963       .  S
Zn47         O52   2.019       .  S
Zn47         O56   2.020       .  S
Zn47         O63   2.012       .  S
Zn48         O51   1.958       .  S
Zn48         O53   2.017       .  S
Zn48         O55   2.016       .  S
Zn48         O59   2.020       .  S
Zn49         O51   1.962   1_655  S
Zn49         O54   2.020       .  S
Zn49         O57   2.018       .  S
Zn49         O60   2.018       .  S
Zn50         O51   1.965   1_655  S
Zn50         O58   2.025       .  S
Zn50         O61   2.034       .  S
Zn50         O62   2.024       .  S
O52          C64   1.273       .  A
O53          C65   1.273       .  A
O54          C66   1.274   1_655  A
O55          C64   1.274       .  A
O56          C66   1.273       .  A
O57          C65   1.274   1_655  A
O58          C67   1.275       .  A
O59          C68   1.273   1_455  A
O60          C67   1.273       .  A
O61          C68   1.276       .  A
O62          C69   1.275       .  A
O63          C69   1.273   1_455  A
C64        C2625   1.482       .  S
C65        C2658   1.481       .  S
C66        C2601   1.484       .  S
C67        C2586   1.486       .  S
C68        C2673   1.496       .  S
C69        C2562   1.480       .  S
Zn70         O74   1.969   1_566  S
Zn70         O75   2.038       .  S
Zn70         O79   2.020       .  S
Zn70         O86   2.027       .  S
Zn71         O74   1.959   1_456  S
Zn71         O76   2.016       .  S
Zn71         O78   2.011       .  S
Zn71         O82   2.002       .  S
Zn72         O74   1.966       .  S
Zn72         O77   2.030       .  S
Zn72         O80   2.033       .  S
Zn72         O83   2.030       .  S
Zn73         O74   1.967   1_465  S
Zn73         O81   2.033       .  S
Zn73         O84   2.031       .  S
Zn73         O85   2.015       .  S
O75          C87   1.275   1_655  A
O76          C88   1.273       .  A
O77          C89   1.275       .  A
O78          C87   1.273   1_545  A
O79          C89   1.275   1_566  A
O80          C88   1.276   1_654  A
O81          C90   1.275   1_465  A
O82          C91   1.271   1_546  A
O83          C90   1.275       .  A
O84          C91   1.276       .  A
O85          C92   1.274   1_455  A
O86          C92   1.274   1_556  A
C87        C2466   1.485       .  S
C88        C2490   1.486       .  S
C89        C2418   1.489       .  S
C90        C2538   1.488       .  S
C91        C2505   1.483       .  S
C92        C2433   1.486       .  S
C93        C2394   1.485       .  S
C93          C94   1.405       .  A
C93          C98   1.408       .  A
C94          C95   1.402       .  A
C94          H99   1.084       .  S
C95        C2874   1.484       .  S
C95          C96   1.402   1_554  A
C96          C97   1.405       .  A
C96         H100   1.084       .  S
C97        C2361   1.491       .  S
C97          C98   1.410   1_556  A
C98         H101   1.083       .  S
C102       C2322   1.484       .  S
C102        C103   1.406       .  A
C102        C107   1.404   1_554  A
C103        C104   1.405   1_554  A
C103        H108   1.084       .  S
C104       C2946   1.486       .  S
C104        C105   1.404       .  A
C105        C106   1.403       .  A
C105        H109   1.084       .  S
C106       C2346   1.483       .  S
C106        C107   1.404       .  A
C107        H110   1.084       .  S
C111       C2298   1.485       .  S
C111        C112   1.405       .  A
C111        C116   1.405       .  A
C112        C113   1.405       .  A
C112        H117   1.084       .  S
C113       C2682   1.490       .  S
C113        C114   1.406   1_655  A
C114        C115   1.406       .  A
C114        H118   1.084       .  S
C115       C2265   1.486       .  S
C115        C116   1.404   1_455  A
C116        H119   1.083       .  S
C120       C2226   1.480       .  S
C120        C121   1.404   1_654  A
C120        C125   1.404       .  A
C121        C122   1.404       .  A
C121        H126   1.084       .  S
C122       C2241   1.483       .  S
C122        C123   1.405       .  A
C123        C124   1.402       .  A
C123        H127   1.084       .  S
C124       C2481   1.480       .  S
C124        C125   1.402   1_456  A
C125        H128   1.084       .  S
C129       C2202   1.481       .  S
C129        C130   1.401       .  A
C129        C134   1.404       .  A
C130        C131   1.403       .  A
C130        H135   1.084       .  S
C131       C2610   1.489       .  S
C131        C132   1.408   1_455  A
C132        C133   1.407       .  A
C132        H136   1.083       .  S
C133       C2169   1.482       .  S
C133        C134   1.404   1_655  A
C134        H137   1.084       .  S
Zn138       O142   1.961       .  S
Zn138       O143   2.010       .  S
Zn138       O147   2.030       .  S
Zn138       O154   2.013       .  S
Zn139       O142   1.969       .  S
Zn139       O144   2.039       .  S
Zn139       O146   2.029       .  S
Zn139       O150   2.023       .  S
Zn140       O142   1.937       .  S
Zn140       O145   1.996       .  S
Zn140       O148   1.987       .  S
Zn140       O151   1.988       .  S
Zn141       O142   1.967       .  S
Zn141       O149   2.028       .  S
Zn141       O152   2.016       .  S
Zn141       O153   2.011       .  S
O143        C155   1.274       .  A
O144        C156   1.275       .  A
O145        C157   1.270       .  A
O146        C155   1.275       .  A
O147        C157   1.272       .  A
O148        C156   1.270       .  A
O149        C158   1.272       .  A
O150        C159   1.275       .  A
O151        C158   1.270       .  A
O152        C159   1.274       .  A
O153        C160   1.274       .  A
O154        C160   1.274       .  A
C155       C2250   1.484       .  S
C156       C2121   1.480       .  S
C157       C2097   1.472       .  S
C158       C2145   1.473       .  S
C159       C2337   1.481       .  S
C160       C2193   1.476       .  S
C161       C2073   1.481       .  S
C161        C162   1.402       .  A
C161        C166   1.403   1_556  A
C162        C163   1.402   1_656  A
C162        H167   1.084       .  S
C163       C2442   1.482       .  S
C163        C164   1.403       .  A
C164        C165   1.405       .  A
C164        H168   1.084       .  S
C165       C2049   1.482       .  S
C165        C166   1.404   1_455  A
C166        H169   1.084       .  S
Zn170       O174   1.938       .  S
Zn170       O175   1.986       .  S
Zn170       O179   1.981       .  S
Zn170       O186   1.986       .  S
Zn171       O174   1.976       .  S
Zn171       O176   2.028       .  S
Zn171       O178   2.057       .  S
Zn171       O182   2.022       .  S
Zn172       O174   1.970       .  S
Zn172       O177   2.040       .  S
Zn172       O180   2.033       .  S
Zn172       O183   2.045       .  S
Zn173       O174   1.970       .  S
Zn173       O181   2.027       .  S
Zn173       O184   2.013       .  S
Zn173       O185   2.048       .  S
O175        C187   1.269       .  A
O176        C188   1.276       .  A
O177        C189   1.275       .  A
O178        C187   1.276       .  A
O179        C189   1.270       .  A
O180        C188   1.276       .  A
O181        C190   1.275       .  A
O182        C191   1.275       .  A
O183        C190   1.277       .  A
O184        C191   1.275       .  A
O185        C192   1.275       .  A
O186        C192   1.269       .  A
C187       C2001   1.483       .  S
C188       C2370   1.491       .  S
C189       C2025   1.483       .  S
C190       C2178   1.485       .  S
C191       C2082   1.479       .  S
C192       C1986   1.478       .  S
Zn193       O197   1.944       .  S
Zn193       O198   2.000       .  S
Zn193       O202   1.995       .  S
Zn193       O209   1.988       .  S
Zn194       O197   1.965       .  S
Zn194       O199   2.024       .  S
Zn194       O201   2.028       .  S
Zn194       O205   2.021       .  S
Zn195       O197   1.965       .  S
Zn195       O200   2.030       .  S
Zn195       O203   2.032       .  S
Zn195       O206   2.032       .  S
Zn196       O197   1.967       .  S
Zn196       O204   2.008       .  S
Zn196       O207   2.010       .  S
Zn196       O208   2.031       .  S
O198        C210   1.271       .  A
O199        C211   1.274       .  A
O200        C212   1.276       .  A
O201        C210   1.272       .  A
O202        C212   1.271       .  A
O203        C211   1.275       .  A
O204        C213   1.273       .  A
O205        C214   1.276       .  A
O206        C213   1.276       .  A
O207        C214   1.274       .  A
O208        C215   1.273       .  A
O209        C215   1.270       .  A
C210       C1929   1.470       .  S
C211       C2385   1.482       .  S
C212       C1953   1.480       .  S
C213       C2289   1.480       .  S
C214       C2217   1.481       .  S
C215       C1905   1.475       .  S
Zn216       O220   1.931       .  S
Zn216       O221   1.987       .  S
Zn216       O225   1.986       .  S
Zn216       O232   1.980       .  S
Zn217       O220   1.966       .  S
Zn217       O222   2.027       .  S
Zn217       O224   2.038       .  S
Zn217       O228   2.021       .  S
Zn218       O220   1.967       .  S
Zn218       O223   2.044       .  S
Zn218       O226   2.030       .  S
Zn218       O229   2.012       .  S
Zn219       O220   1.975       .  S
Zn219       O227   2.029       .  S
Zn219       O230   2.025       .  S
Zn219       O231   2.050       .  S
O221        C233   1.269       .  A
O222        C234   1.275       .  A
O223        C235   1.274       .  A
O224        C233   1.274       .  A
O225        C235   1.271       .  A
O226        C234   1.276       .  A
O227        C236   1.276       .  A
O228        C237   1.276       .  A
O229        C236   1.275       .  A
O230        C237   1.276       .  A
O231        C238   1.275       .  A
O232        C238   1.269       .  A
C233       C1890   1.474       .  S
C234       C2274   1.485       .  S
C235       C1842   1.496       .  S
C236       C2058   1.485       .  S
C237       C2313   1.485       .  S
C238       C1866   1.480       .  S
C239       C1785   1.485       .  S
C239        C240   1.406       .  A
C239        C244   1.404   1_554  A
C240        C241   1.405   1_554  A
C240        H245   1.084       .  S
C241       C2970   1.485       .  S
C241        C242   1.406       .  A
C242        C243   1.404       .  A
C242        H246   1.084       .  S
C243       C1809   1.482       .  S
C243        C244   1.403       .  A
C244        H247   1.084       .  S
C248       C1761   1.484       .  S
C248        C249   1.404   1_554  A
C248        C253   1.404       .  A
C249        C250   1.403       .  A
C249        H254   1.084       .  S
C250       C1737   1.480       .  S
C250        C251   1.404       .  A
C251        C252   1.403       .  A
C251        H255   1.084       .  S
C252       C2850   1.482       .  S
C252        C253   1.403   1_556  A
C253        H256   1.084       .  S
C257       C1713   1.483       .  S
C257        C258   1.403       .  A
C257        C262   1.405       .  A
C258        C259   1.403   1_565  A
C258        H263   1.084       .  S
C259       C1689   1.479       .  S
C259        C260   1.405       .  A
C260        C261   1.406   1_545  A
C260        H264   1.084       .  S
C261       C2826   1.488       .  S
C261        C262   1.405       .  A
C262        H265   1.084       .  S
C266       C1674   1.481       .  S
C266        C267   1.403   1_545  A
C266        C271   1.404       .  A
C267        C268   1.405   1_556  A
C267        H272   1.084       .  S
C268       C1650   1.484       .  S
C268        C269   1.405       .  A
C269        C270   1.403   1_554  A
C269        H273   1.084       .  S
C270       C2514   1.478       .  S
C270        C271   1.401   1_565  A
C271        H274   1.084       .  S
C275       C1626   1.477       .  S
C275        C276   1.405       .  A
C275        C280   1.401   1_556  A
C276        C277   1.405   1_556  A
C276        H281   1.084       .  S
C277       C2409   1.480       .  S
C277        C278   1.402   1_565  A
C278        C279   1.401       .  A
C278        H282   1.084       .  S
C279       C1602   1.474       .  S
C279        C280   1.400   1_545  A
C280        H283   1.084       .  S
Zn284       O288   1.944       .  S
Zn284       O289   2.005       .  S
Zn284       O293   2.006       .  S
Zn284       O300   2.000       .  S
Zn285       O288   1.963       .  S
Zn285       O290   2.012       .  S
Zn285       O292   2.028       .  S
Zn285       O296   2.024       .  S
Zn286       O288   1.962       .  S
Zn286       O291   2.032       .  S
Zn286       O294   2.023       .  S
Zn286       O297   2.017       .  S
Zn287       O288   1.963       .  S
Zn287       O295   2.010       .  S
Zn287       O298   2.015       .  S
Zn287       O299   2.025       .  S
O289        C301   1.273       .  A
O290        C302   1.273       .  A
O291        C303   1.273       .  A
O292        C301   1.273       .  A
O293        C303   1.272       .  A
O294        C302   1.275       .  A
O295        C304   1.273       .  A
O296        C305   1.275       .  A
O297        C304   1.274       .  A
O298        C305   1.274       .  A
O299        C306   1.273       .  A
O300        C306   1.271       .  A
C301       C1545   1.473       .  S
C302       C1746   1.480       .  S
C303       C2010   1.476       .  S
C304       C1617   1.480       .  S
C305       C1569   1.485       .  S
C306       C1521   1.470       .  S
C307       C1578   1.485       .  S
C307        C308   1.403   1_565  A
C307        C312   1.405       .  A
C308        C309   1.403       .  A
C308        H313   1.084       .  S
C309       C1497   1.483       .  S
C309        C310   1.405       .  A
C310        C311   1.406       .  A
C310        H314   1.084       .  S
C311       C2754   1.488       .  S
C311        C312   1.405   1_545  A
C312        H315   1.084       .  S
Zn316       O320   1.972       .  S
Zn316       O321   2.041       .  S
Zn316       O325   2.050       .  S
Zn316       O332   2.043       .  S
Zn317       O320   1.955       .  S
Zn317       O322   2.018       .  S
Zn317       O324   1.998       .  S
Zn317       O328   2.007       .  S
Zn318       O320   1.959       .  S
Zn318       O323   2.010       .  S
Zn318       O326   2.016       .  S
Zn318       O329   2.010       .  S
Zn319       O320   1.962       .  S
Zn319       O327   2.015       .  S
Zn319       O330   2.026       .  S
Zn319       O331   2.009       .  S
O321        C333   1.277       .  A
O322        C334   1.273       .  A
O323        C335   1.274       .  A
O324        C333   1.273       .  A
O325        C335   1.278       .  A
O326        C334   1.273       .  A
O327        C336   1.273       .  A
O328        C337   1.271       .  A
O329        C336   1.272       .  A
O330        C337   1.274       .  A
O331        C338   1.273       .  A
O332        C338   1.277       .  A
C333       C1665   1.482       .  S
C334       C2130   1.484       .  S
C335       C1818   1.492       .  S
C336       C1482   1.481       .  S
C337       C1449   1.482       .  S
C338       C1506   1.482       .  S
Zn339       O343   1.933       .  S
Zn339       O344   1.995       .  S
Zn339       O348   1.988       .  S
Zn339       O355   1.982       .  S
Zn340       O343   1.965       .  S
Zn340       O345   2.022       .  S
Zn340       O347   2.043       .  S
Zn340       O351   2.015       .  S
Zn341       O343   1.967       .  S
Zn341       O346   2.032       .  S
Zn341       O349   2.016       .  S
Zn341       O352   2.030       .  S
Zn342       O343   1.965       .  S
Zn342       O350   2.026       .  S
Zn342       O353   2.025       .  S
Zn342       O354   2.041       .  S
O344        C356   1.271       .  A
O345        C357   1.275       .  A
O346        C358   1.274       .  A
O347        C356   1.274       .  A
O348        C358   1.270       .  A
O349        C357   1.274       .  A
O350        C359   1.276       .  A
O351        C360   1.274       .  A
O352        C359   1.276       .  A
O353        C360   1.275       .  A
O354        C361   1.274       .  A
O355        C361   1.271       .  A
C356       C1857   1.484       .  S
C357       C1641   1.477       .  S
C358       C1410   1.479       .  S
C359       C1722   1.488       .  S
C360       C1770   1.485       .  S
C361       C1425   1.491       .  S
Zn362       O366   1.965       .  S
Zn362       O367   2.040       .  S
Zn362       O371   2.021       .  S
Zn362       O378   2.031       .  S
Zn363       O366   1.952       .  S
Zn363       O368   2.010       .  S
Zn363       O370   2.003       .  S
Zn363       O374   2.003       .  S
Zn364       O366   1.959       .  S
Zn364       O369   2.007       .  S
Zn364       O372   2.022       .  S
Zn364       O375   2.020       .  S
Zn365       O366   1.956       .  S
Zn365       O373   2.009       .  S
Zn365       O376   2.013       .  S
Zn365       O377   2.011       .  S
O367        C379   1.275       .  A
O368        C380   1.273       .  A
O369        C381   1.273       .  A
O370        C379   1.274       .  A
O371        C381   1.274       .  A
O372        C380   1.273       .  A
O373        C382   1.272       .  A
O374        C383   1.272       .  A
O375        C382   1.274       .  A
O376        C383   1.272       .  A
O377        C384   1.273       .  A
O378        C384   1.275       .  A
C379       C1698   1.495       .  S
C380       C1353   1.489       .  S
C381       C1593   1.476       .  S
C382       C1938   1.479       .  S
C383       C1377   1.482       .  S
C384       C1794   1.475       .  S
C385       C1329   1.482       .  S
C385        C386   1.404       .  A
C385        C390   1.404       .  A
C386        C387   1.403       .  A
C386        H391   1.084       .  S
C387       C2913   1.477       .  S
C387        C388   1.402       .  A
C388        C389   1.404       .  A
C388        H392   1.084       .  S
C389       C1305   1.482       .  S
C389        C390   1.404       .  A
C390        H393   1.084       .  S
C394       C1281   1.481       .  S
C394        C395   1.404       .  A
C394        C399   1.403       .  A
C395        C396   1.404       .  A
C395        H400   1.084       .  S
C396       C1266   1.484       .  S
C396        C397   1.406       .  A
C397        C398   1.405       .  A
C397        H401   1.084       .  S
C398       C2577   1.483       .  S
C398        C399   1.403       .  A
C399        H402   1.084       .  S
Zn403       O407   1.970       .  S
Zn403       O408   2.046       .  S
Zn403       O412   2.040       .  S
Zn403       O419   2.047       .  S
Zn404       O407   1.956       .  S
Zn404       O409   2.019       .  S
Zn404       O411   2.006       .  S
Zn404       O415   2.019       .  S
Zn405       O407   1.951       .  S
Zn405       O410   1.999       .  S
Zn405       O413   2.000       .  S
Zn405       O416   2.007       .  S
Zn406       O407   1.950       .  S
Zn406       O414   2.010       .  S
Zn406       O417   2.008       .  S
Zn406       O418   1.993       .  S
O408        C420   1.278       .  A
O409        C421   1.273       .  A
O410        C422   1.273       .  A
O411        C420   1.273       .  A
O412        C422   1.277       .  A
O413        C421   1.271       .  A
O414        C423   1.270       .  A
O415        C424   1.274       .  A
O416        C423   1.272       .  A
O417        C424   1.272       .  A
O418        C425   1.273       .  A
O419        C425   1.277       .  A
C420       C1233   1.481       .  S
C421       C1386   1.477       .  S
C422       C1338   1.479       .  S
C423       C1962   1.487       .  S
C424       C1209   1.484       .  S
C425       C1290   1.493       .  S
C426       C1242   1.485       .  S
C426        C427   1.405       .  A
C426        C431   1.405       .  A
C427        C428   1.404       .  A
C427        H432   1.084       .  S
C428       C2769   1.482       .  S
C428        C429   1.402       .  A
C429        C430   1.403       .  A
C429        H433   1.084       .  S
C430       C1185   1.484       .  S
C430        C431   1.406       .  A
C431        H434   1.084       .  S
C435       C1161   1.483       .  S
C435        C436   1.403       .  A
C435        C440   1.406       .  A
C436        C437   1.401       .  A
C436        H441   1.084       .  S
C437       C1137   1.477       .  S
C437        C438   1.402       .  A
C438        C439   1.405       .  A
C438        H442   1.084       .  S
C439       C2706   1.486       .  S
C439        C440   1.406       .  A
C440        H443   1.084       .  S
Zn444       O448   1.958       .  S
Zn444       O449   2.020       .  S
Zn444       O453   2.010       .  S
Zn444       O460   2.014       .  S
Zn445       O448   1.956       .  S
Zn445       O450   2.003       .  S
Zn445       O452   2.013       .  S
Zn445       O456   2.007       .  S
Zn446       O448   1.969       .  S
Zn446       O451   2.040       .  S
Zn446       O454   2.030       .  S
Zn446       O457   2.037       .  S
Zn447       O448   1.965       .  S
Zn447       O455   2.014       .  S
Zn447       O458   2.030       .  S
Zn447       O459   2.017       .  S
O449        C461   1.273       .  A
O450        C462   1.273       .  A
O451        C463   1.276       .  A
O452        C461   1.272       .  A
O453        C463   1.274       .  A
O454        C462   1.275       .  A
O455        C464   1.274       .  A
O456        C465   1.273       .  A
O457        C464   1.276       .  A
O458        C465   1.274       .  A
O459        C466   1.273       .  A
O460        C466   1.273       .  A
C461       C1881   1.483       .  S
C462       C1113   1.483       .  S
C463       C1314   1.485       .  S
C464       C1170   1.479       .  S
C465       C1098   1.484       .  S
C466       C1434   1.483       .  S
C467       C1065   1.479       .  S
C467        C468   1.402       .  A
C467        C472   1.404       .  A
C468        C469   1.401       .  A
C468        H473   1.084       .  S
C469       C2634   1.480       .  S
C469        C470   1.401       .  A
C470        C471   1.404       .  A
C470        H474   1.084       .  S
C471       C1122   1.482       .  S
C471        C472   1.404       .  A
C472        H475   1.084       .  S
C476       C1026   1.478       .  S
C476        C477   1.401       .  A
C476        C481   1.402       .  A
C477        C478   1.403       .  A
C477        H482   1.084       .  S
C478       C1041   1.481       .  S
C478        C479   1.405       .  A
C479        C480   1.404       .  A
C479        H483   1.084       .  S
C480       C2889   1.481       .  S
C480        C481   1.403       .  A
C481        H484   1.084       .  S
Zn485       O489   1.929       .  S
Zn485       O490   1.977       .  S
Zn485       O494   1.984       .  S
Zn485       O501   1.983       .  S
Zn486       O489   1.966       .  S
Zn486       O491   2.020       .  S
Zn486       O493   2.032       .  S
Zn486       O497   2.013       .  S
Zn487       O489   1.964       .  S
Zn487       O492   2.023       .  S
Zn487       O495   2.012       .  S
Zn487       O498   2.006       .  S
Zn488       O489   1.966       .  S
Zn488       O496   2.022       .  S
Zn488       O499   2.019       .  S
Zn488       O500   2.047       .  S
O490        C502   1.269       .  A
O491        C503   1.274       .  A
O492        C504   1.272       .  A
O493        C502   1.273       .  A
O494        C504   1.270       .  A
O495        C503   1.273       .  A
O496        C505   1.276       .  A
O497        C506   1.274       .  A
O498        C505   1.272       .  A
O499        C506   1.275       .  A
O500        C507   1.275       .  A
O501        C507   1.269       .  A
C502       C1002   1.474       .  S
C503       C1074   1.481       .  S
C504       C2154   1.474       .  S
C505       C1050   1.484       .  S
C506       C1194   1.480       .  S
C507       C1473   1.477       .  S
Zn508       O512   1.956       .  S
Zn508       O513   2.011       .  S
Zn508       O517   2.014       .  S
Zn508       O524   2.002       .  S
Zn509       O512   1.959       .  S
Zn509       O514   2.021       .  S
Zn509       O516   2.026       .  S
Zn509       O520   2.016       .  S
Zn510       O512   1.953       .  S
Zn510       O515   2.007       .  S
Zn510       O518   2.005       .  S
Zn510       O521   1.991       .  S
Zn511       O512   1.967       .  S
Zn511       O519   2.039       .  S
Zn511       O522   2.039       .  S
Zn511       O523   2.032       .  S
O513        C525   1.272       .  A
O514        C526   1.274       .  A
O515        C527   1.270       .  A
O516        C525   1.275       .  A
O517        C527   1.273       .  A
O518        C526   1.271       .  A
O519        C528   1.275       .  A
O520        C529   1.274       .  A
O521        C528   1.272       .  A
O522        C529   1.277       .  A
O523        C530   1.276       .  A
O524        C530   1.273       .  A
C525        C969   1.481       .  S
C526       C2034   1.482       .  S
C527       C1554   1.486       .  S
C528       C1017   1.494       .  S
C529       C1257   1.485       .  S
C530       C1146   1.481       .  S
C531        C945   1.477       .  S
C531        C532   1.401   1_565  A
C531        C536   1.404       .  A
C532        C533   1.402       .  A
C532        H537   1.084       .  S
C533        C921   1.481       .  S
C533        C534   1.406       .  A
C534        C535   1.406   1_545  A
C534        H538   1.084       .  S
C535       C2802   1.487       .  S
C535        C536   1.406       .  A
C536        H539   1.084       .  S
C540        C897   1.481       .  S
C540        C541   1.402       .  A
C540        C545   1.404       .  A
C541        C542   1.401   1_545  A
C541        H546   1.084       .  S
C542       C2721   1.479       .  S
C542        C543   1.403       .  A
C543        C544   1.405       .  A
C543        H547   1.084       .  S
C544        C873   1.486       .  S
C544        C545   1.407   1_565  A
C545        H548   1.083       .  S
C549        C834   1.477       .  S
C549        C550   1.405       .  A
C549        C554   1.401   1_455  A
C550        C551   1.404   1_455  A
C550        H555   1.084       .  S
C551       C2649   1.481       .  S
C551        C552   1.404       .  A
C552        C553   1.402       .  A
C552        H556   1.084       .  S
C553        C849   1.475       .  S
C553        C554   1.400       .  A
C554        H557   1.084       .  S
C558        C777   1.489       .  S
C558        C559   1.405       .  A
C558        C563   1.407       .  A
C559        C560   1.404   1_645  A
C559        H564   1.084       .  S
C560        C801   1.488       .  S
C560        C561   1.407       .  A
C561        C562   1.406   1_465  A
C561        H565   1.084       .  S
C562       C2529   1.490       .  S
C562        C563   1.406       .  A
C563        H566   1.083       .  S
C567        C729   1.478       .  S
C567        C568   1.403       .  A
C567        C572   1.402       .  A
C568        C569   1.403       .  A
C568        H573   1.084       .  S
C569       C2553   1.483       .  S
C569        C570   1.404   1_455  A
C570        C571   1.405       .  A
C570        H574   1.084       .  S
C571        C753   1.482       .  S
C571        C572   1.404   1_655  A
C572        H575   1.084       .  S
Zn576       O580   1.966       .  S
Zn576       O581   2.036       .  S
Zn576       O585   2.033       .  S
Zn576       O592   2.039       .  S
Zn577       O580   1.954       .  S
Zn577       O582   2.018       .  S
Zn577       O584   2.011       .  S
Zn577       O588   2.002       .  S
Zn578       O580   1.962       .  S
Zn578       O583   2.020       .  S
Zn578       O586   2.021       .  S
Zn578       O589   2.022       .  S
Zn579       O580   1.962       .  S
Zn579       O587   2.014       .  S
Zn579       O590   2.020       .  S
Zn579       O591   2.007       .  S
O581        C593   1.275       .  A
O582        C594   1.273       .  A
O583        C595   1.275       .  A
O584        C593   1.274       .  A
O585        C595   1.276       .  A
O586        C594   1.274       .  A
O587        C596   1.274       .  A
O588        C597   1.270       .  A
O589        C596   1.273       .  A
O590        C597   1.274       .  A
O591        C598   1.274       .  A
O592        C598   1.276       .  A
C593        C954   1.488       .  S
C594       C1089   1.483       .  S
C595        C738   1.488       .  S
C596       C1833   1.490       .  S
C597       C1401   1.492       .  S
C598        C810   1.489       .  S
Zn599       O603   1.965       .  S
Zn599       O604   2.011       .  S
Zn599       O608   2.021       .  S
Zn599       O615   2.021       .  S
Zn600       O603   1.974       .  S
Zn600       O605   2.052       .  S
Zn600       O607   2.030       .  S
Zn600       O611   2.033       .  S
Zn601       O603   1.938       .  S
Zn601       O606   1.990       .  S
Zn601       O609   1.972       .  S
Zn601       O612   1.994       .  S
Zn602       O603   1.961       .  S
Zn602       O610   2.029       .  S
Zn602       O613   2.019       .  S
Zn602       O614   2.019       .  S
O604        C616   1.274       .  A
O605        C617   1.276       .  A
O606        C618   1.270       .  A
O607        C616   1.276       .  A
O608        C618   1.272       .  A
O609        C617   1.268       .  A
O610        C619   1.273       .  A
O611        C620   1.277       .  A
O612        C619   1.270       .  A
O613        C620   1.275       .  A
O614        C621   1.274       .  A
O615        C621   1.275       .  A
C616        C858   1.479       .  S
C617       C1218   1.478       .  S
C618       C1914   1.475       .  S
C619       C1362   1.472       .  S
C620        C906   1.481       .  S
C621        C786   1.485       .  S
C622        C681   1.478       .  S
C622        C623   1.404       .  A
C622        C627   1.404   1_545  A
C623        C624   1.400   1_545  A
C623        H628   1.084       .  S
C624       C2457   1.478   1_565  S
C624        C625   1.400   1_455  A
C625        C626   1.403       .  A
C625        H629   1.084       .  S
C626        C714   1.482       .  S
C626        C627   1.405   1_655  A
C627        H630   1.084   1_565  S
Zn631       O635   1.970       .  S
Zn631       O636   2.043       .  S
Zn631       O640   2.023       .  S
Zn631       O647   2.034       .  S
Zn632       O635   1.945       .  S
Zn632       O637   2.001       .  S
Zn632       O639   2.000       .  S
Zn632       O643   1.990       .  S
Zn633       O635   1.962       .  S
Zn633       O638   2.010       .  S
Zn633       O641   2.020       .  S
Zn633       O644   2.019       .  S
Zn634       O635   1.965       .  S
Zn634       O642   2.017       .  S
Zn634       O645   2.033       .  S
Zn634       O646   2.014       .  S
O636        C648   1.275       .  A
O637        C649   1.271       .  A
O638        C650   1.273       .  A
O639        C648   1.271       .  A
O640        C650   1.275       .  A
O641        C649   1.273       .  A
O642        C651   1.274       .  A
O643        C652   1.269       .  A
O644        C651   1.273       .  A
O645        C652   1.273       .  A
O646        C653   1.275       .  A
O647        C653   1.277       .  A
C648       C1977   1.478       .  S
C649       C1530   1.472       .  S
C650        C705   1.480       .  S
C651        C882   1.485       .  S
C652        C978   1.469       .  S
C653        C762   1.480       .  S
Zn654       O658   1.965       .  S
Zn654       O659   2.017       .  S
Zn654       O663   2.010       .  S
Zn654       O670   2.036       .  S
Zn655       O658   1.968       .  S
Zn655       O660   2.017       .  S
Zn655       O662   2.024       .  S
Zn655       O666   2.041       .  S
Zn656       O658   1.966       .  S
Zn656       O661   2.009       .  S
Zn656       O664   2.015       .  S
Zn656       O667   2.034       .  S
Zn657       O658   1.932       .  S
Zn657       O665   1.989       .  S
Zn657       O668   1.983       .  S
Zn657       O669   1.990       .  S
O659        C671   1.274       .  A
O660        C672   1.275       .  A
O661        C673   1.273       .  A
O662        C671   1.275       .  A
O663        C673   1.273       .  A
O664        C672   1.274       .  A
O665        C674   1.271       .  A
O666        C675   1.274       .  A
O667        C674   1.273       .  A
O668        C675   1.270       .  A
O669        C676   1.270       .  A
O670        C676   1.274       .  A
C671        C930   1.480       .  S
C672        C825   1.477       .  S
C673        C690   1.472       .  S
C674       C2106   1.488       .  S
C675        C993   1.483       .  S
C676       C1458   1.477       .  S
C677        C678   1.401       .  A
C677        C682   1.398       .  A
C677        H687   1.084       .  S
C678        C683   1.476       .  S
C678        C679   1.412       .  A
C679        C680   1.399       .  A
C679        S684   1.805       .  S
C680        C681   1.404       .  A
C680        H685   1.084       .  S
C681        C682   1.414       .  A
C682        S686   1.804       .  S
C683        C688   1.409       .  A
C683        C692   1.401       .  A
S684        H700   1.405       .  S
S686        H697   1.406   1_545  S
C688        C689   1.401       .  A
C688        S693   1.807       .  S
C689        C690   1.404       .  A
C689        H694   1.083       .  S
C690        C691   1.413       .  A
C691        C692   1.398       .  A
C691        S695   1.804       .  S
C692        H696   1.083       .  S
S693        H698   1.407       .  S
S695        H699   1.407       .  S
C701        C702   1.403       .  A
C701        C706   1.399       .  A
C701        H711   1.084       .  S
C702        C707   1.480       .  S
C702        C703   1.412       .  A
C703        C704   1.399       .  A
C703        S708   1.805       .  S
C704        C705   1.405       .  A
C704        H709   1.084       .  S
C705        C706   1.416       .  A
C706        S710   1.804       .  S
C707        C712   1.410       .  A
C707        C716   1.402       .  A
S708        H724   1.405       .  S
S710        H721   1.407       .  S
C712        C713   1.402       .  A
C712        S717   1.807       .  S
C713        C714   1.406       .  A
C713        H718   1.083       .  S
C714        C715   1.415       .  A
C715        C716   1.399       .  A
C715        S719   1.804   1_655  S
C716        H720   1.084       .  S
S717        H722   1.407       .  S
S719        H723   1.406       .  S
C725        C726   1.402       .  A
C725        C730   1.398       .  A
C725        H735   1.084       .  S
C726        C731   1.479       .  S
C726        C727   1.412       .  A
C727        C728   1.401       .  A
C727        S732   1.804       .  S
C728        C729   1.404       .  A
C728        H733   1.084       .  S
C729        C730   1.412       .  A
C730        S734   1.804       .  S
C731        C736   1.408       .  A
C731        C740   1.399       .  A
S732        H748   1.405       .  S
S734        H745   1.406   1_455  S
C736        C737   1.404       .  A
C736        S741   1.806       .  S
C737        C738   1.408       .  A
C737        H742   1.082       .  S
C738        C739   1.417       .  A
C739        C740   1.399       .  A
C739        S743   1.800       .  S
C740        H744   1.084       .  S
S741        H746   1.407       .  S
S743        H747   1.407       .  S
C749        C750   1.402       .  A
C749        C754   1.401       .  A
C749        H759   1.084       .  S
C750        C755   1.480       .  S
C750        C751   1.412       .  A
C751        C752   1.399       .  A
C751        S756   1.804       .  S
C752        C753   1.404       .  A
C752        H757   1.084       .  S
C753        C754   1.415       .  A
C754        S758   1.804       .  S
C755        C760   1.410       .  A
C755        C764   1.400       .  A
S756        H772   1.405       .  S
S758        H769   1.406       .  S
C760        C761   1.406       .  A
C760        S765   1.806       .  S
C761        C762   1.406       .  A
C761        H766   1.083       .  S
C762        C763   1.416       .  A
C763        C764   1.397       .  A
C763        S767   1.804       .  S
C764        H768   1.084       .  S
S765        H770   1.407       .  S
S767        H771   1.407       .  S
C773        C774   1.402       .  A
C773        C778   1.401       .  A
C773        H783   1.084       .  S
C774        C779   1.482       .  S
C774        C775   1.412       .  A
C775        C776   1.400       .  A
C775        S780   1.805       .  S
C776        C777   1.407       .  A
C776        H781   1.084       .  S
C777        C778   1.417       .  A
C778        S782   1.804       .  S
C779        C784   1.409       .  A
C779        C788   1.401       .  A
S780        H796   1.405       .  S
S782        H793   1.407   1_545  S
C784        C785   1.403       .  A
C784        S789   1.807       .  S
C785        C786   1.407       .  A
C785        H790   1.083       .  S
C786        C787   1.417       .  A
C787        C788   1.401       .  A
C787        S791   1.803       .  S
C788        H792   1.083       .  S
S789        H794   1.407       .  S
S791        H795   1.407       .  S
C797        C798   1.401       .  A
C797        C802   1.402       .  A
C797        H807   1.084       .  S
C798        C803   1.482       .  S
C798        C799   1.412       .  A
C799        C800   1.399       .  A
C799        S804   1.804       .  S
C800        C801   1.405       .  A
C800        H805   1.084       .  S
C801        C802   1.418       .  A
C802        S806   1.804   1_565  S
C803        C808   1.408       .  A
C803        C812   1.401       .  A
S804        H820   1.405       .  S
S806        H817   1.406       .  S
C808        C809   1.402       .  A
C808        S813   1.808       .  S
C809        C810   1.408       .  A
C809        H814   1.082       .  S
C810        C811   1.418       .  A
C811        C812   1.402       .  A
C811        S815   1.799       .  S
C812        H816   1.083       .  S
S813        H818   1.406       .  S
S815        H819   1.407       .  S
C821        C822   1.402       .  A
C821        C826   1.399       .  A
C821        H831   1.084       .  S
C822        C827   1.478       .  S
C822        C823   1.412       .  A
C823        C824   1.398       .  A
C823        S828   1.806       .  S
C824        C825   1.404       .  A
C824        H829   1.084       .  S
C825        C826   1.414       .  A
C826        S830   1.803       .  S
C827        C832   1.409       .  A
C827        C836   1.402       .  A
S828        H844   1.405       .  S
S830        H841   1.407       .  S
C832        C833   1.402       .  A
C832        S837   1.807       .  S
C833        C834   1.404       .  A
C833        H838   1.083       .  S
C834        C835   1.413       .  A
C835        C836   1.398       .  A
C835        S839   1.803       .  S
C836        H840   1.084       .  S
S837        H842   1.407       .  S
S839        H843   1.406   1_455  S
C845        C846   1.404       .  A
C845        C850   1.399       .  A
C845        H855   1.084       .  S
C846        C851   1.481       .  S
C846        C847   1.413       .  A
C847        C848   1.399       .  A
C847        S852   1.804       .  S
C848        C849   1.402       .  A
C848        H853   1.085       .  S
C849        C850   1.412       .  A
C850        S854   1.804       .  S
C851        C856   1.410       .  A
C851        C860   1.401       .  A
S852        H868   1.406       .  S
S854        H865   1.406       .  S
C856        C857   1.404       .  A
C856        S861   1.807       .  S
C857        C858   1.404       .  A
C857        H862   1.082       .  S
C858        C859   1.416       .  A
C859        C860   1.398       .  A
C859        S863   1.804       .  S
C860        H864   1.084       .  S
S861        H866   1.407       .  S
S863        H867   1.407       .  S
C869        C870   1.402       .  A
C869        C874   1.401       .  A
C869        H879   1.084       .  S
C870        C875   1.481       .  S
C870        C871   1.413       .  A
C871        C872   1.399       .  A
C871        S876   1.805       .  S
C872        C873   1.405       .  A
C872        H877   1.084       .  S
C873        C874   1.416       .  A
C874        S878   1.804   1_565  S
C875        C880   1.409       .  A
C875        C884   1.400       .  A
S876        H892   1.405       .  S
S878        H889   1.407       .  S
C880        C881   1.404       .  A
C880        S885   1.807       .  S
C881        C882   1.407       .  A
C881        H886   1.082       .  S
C882        C883   1.418       .  A
C883        C884   1.399       .  A
C883        S887   1.803       .  S
C884        H888   1.084       .  S
S885        H890   1.406       .  S
S887        H891   1.408       .  S
C893        C894   1.402       .  A
C893        C898   1.399       .  A
C893        H903   1.084       .  S
C894        C899   1.480       .  S
C894        C895   1.414       .  A
C895        C896   1.401       .  A
C895        S900   1.806       .  S
C896        C897   1.404       .  A
C896        H901   1.084       .  S
C897        C898   1.414       .  A
C898        S902   1.804       .  S
C899        C904   1.408       .  A
C899        C908   1.402       .  A
S900        H916   1.404       .  S
S902        H913   1.406       .  S
C904        C905   1.403       .  A
C904        S909   1.806       .  S
C905        C906   1.406       .  A
C905        H910   1.083       .  S
C906        C907   1.415       .  A
C907        C908   1.402       .  A
C907        S911   1.803       .  S
C908        H912   1.084       .  S
S909        H914   1.407       .  S
S911        H915   1.407       .  S
C917        C918   1.403       .  A
C917        C922   1.400       .  A
C917        H927   1.084       .  S
C918        C923   1.483       .  S
C918        C919   1.413       .  A
C919        C920   1.400       .  A
C919        S924   1.804       .  S
C920        C921   1.403       .  A
C920        H925   1.084       .  S
C921        C922   1.414       .  A
C922        S926   1.804       .  S
C923        C928   1.410       .  A
C923        C932   1.401       .  A
S924        H940   1.406       .  S
S926        H937   1.407   1_545  S
C928        C929   1.406       .  A
C928        S933   1.806       .  S
C929        C930   1.406       .  A
C929        H934   1.083       .  S
C930        C931   1.414       .  A
C931        C932   1.397       .  A
C931        S935   1.801       .  S
C932        H936   1.083       .  S
S933        H938   1.407       .  S
S935        H939   1.407       .  S
C941        C942   1.402       .  A
C941        C946   1.399       .  A
C941        H951   1.084       .  S
C942        C947   1.480       .  S
C942        C943   1.413       .  A
C943        C944   1.402       .  A
C943        S948   1.805       .  S
C944        C945   1.403       .  A
C944        H949   1.084       .  S
C945        C946   1.412       .  A
C946        S950   1.804       .  S
C947        C952   1.407       .  A
C947        C956   1.401       .  A
S948        H964   1.405       .  S
S950        H961   1.406       .  S
C952        C953   1.403       .  A
C952        S957   1.807       .  S
C953        C954   1.409       .  A
C953        H958   1.082       .  S
C954        C955   1.418       .  A
C955        C956   1.401       .  A
C955        S959   1.802       .  S
C956        H960   1.083       .  S
S957        H962   1.407       .  S
S959        H963   1.407       .  S
C965        C966   1.404       .  A
C965        C970   1.400       .  A
C965        H975   1.084       .  S
C966        C971   1.487       .  S
C966        C967   1.414       .  A
C967        C968   1.400       .  A
C967        S972   1.804       .  S
C968        C969   1.404       .  A
C968        H973   1.084       .  S
C969        C970   1.416       .  A
C970        S974   1.804       .  S
C971        C976   1.414       .  A
C971        C980   1.403       .  A
S972        H988   1.407       .  S
S974        H985   1.407       .  S
C976        C977   1.406       .  A
C976        S981   1.806       .  S
C977        C978   1.403       .  A
C977        H982   1.083       .  S
C978        C979   1.408       .  A
C979        C980   1.395       .  A
C979        S983   1.802       .  S
C980        H984   1.084       .  S
S981        H986   1.407       .  S
S983        H987   1.407       .  S
C989        C990   1.401       .  A
C989        C994   1.403       .  A
C989        H999   1.084       .  S
C990        C995   1.476       .  S
C990        C991   1.410       .  A
C991        C992   1.393       .  A
C991        S996   1.806       .  S
C992        C993   1.405       .  A
C992        H997   1.084       .  S
C993        C994   1.417       .  A
C994        S998   1.798       .  S
C995       C1000   1.408       .  A
C995       C1004   1.402       .  A
S996       H1012   1.405       .  S
S998       H1009   1.406       .  S
C1000      C1001   1.396       .  A
C1000      S1005   1.809       .  S
C1001      C1002   1.404       .  A
C1001      H1006   1.083       .  S
C1002      C1003   1.415       .  A
C1003      C1004   1.403       .  A
C1003      S1007   1.802       .  S
C1004      H1008   1.084       .  S
S1005      H1010   1.407       .  S
S1007      H1011   1.407       .  S
C1013      C1014   1.401       .  A
C1013      C1018   1.402       .  A
C1013      H1023   1.084       .  S
C1014      C1019   1.478       .  S
C1014      C1015   1.407       .  A
C1015      C1016   1.396       .  A
C1015      S1020   1.805       .  S
C1016      C1017   1.412       .  A
C1016      H1021   1.083       .  S
C1017      C1018   1.421       .  A
C1018      S1022   1.800       .  S
C1019      C1024   1.408       .  A
C1019      C1028   1.402       .  A
S1020      H1036   1.406       .  S
S1022      H1033   1.408       .  S
C1024      C1025   1.403       .  A
C1024      S1029   1.806       .  S
C1025      C1026   1.404       .  A
C1025      H1030   1.083       .  S
C1026      C1027   1.413       .  A
C1027      C1028   1.397       .  A
C1027      S1031   1.804       .  S
C1028      H1032   1.084       .  S
S1029      H1034   1.407       .  S
S1031      H1035   1.406       .  S
C1037      C1038   1.402       .  A
C1037      C1042   1.399       .  A
C1037      H1047   1.085       .  S
C1038      C1043   1.476       .  S
C1038      C1039   1.411       .  A
C1039      C1040   1.396       .  A
C1039      S1044   1.805       .  S
C1040      C1041   1.404       .  A
C1040      H1045   1.084       .  S
C1041      C1042   1.415       .  A
C1042      S1046   1.804       .  S
C1043      C1048   1.408       .  A
C1043      C1052   1.399       .  A
S1044      H1060   1.406       .  S
S1046      H1057   1.406       .  S
C1048      C1049   1.400       .  A
C1048      S1053   1.807       .  S
C1049      C1050   1.406       .  A
C1049      H1054   1.082       .  S
C1050      C1051   1.419       .  A
C1051      C1052   1.399       .  A
C1051      S1055   1.801       .  S
C1052      H1056   1.083       .  S
S1053      H1058   1.407       .  S
S1055      H1059   1.407       .  S
C1061      C1062   1.403       .  A
C1061      C1066   1.399       .  A
C1061      H1071   1.084       .  S
C1062      C1067   1.481       .  S
C1062      C1063   1.413       .  A
C1063      C1064   1.398       .  A
C1063      S1068   1.804       .  S
C1064      C1065   1.404       .  A
C1064      H1069   1.085       .  S
C1065      C1066   1.414       .  A
C1066      S1070   1.804       .  S
C1067      C1072   1.410       .  A
C1067      C1076   1.401       .  A
S1068      H1084   1.406       .  S
S1070      H1081   1.406       .  S
C1072      C1073   1.403       .  A
C1072      S1077   1.807       .  S
C1073      C1074   1.406       .  A
C1073      H1078   1.083       .  S
C1074      C1075   1.415       .  A
C1075      C1076   1.398       .  A
C1075      S1079   1.801       .  S
C1076      H1080   1.084       .  S
S1077      H1082   1.407       .  S
S1079      H1083   1.407       .  S
C1085      C1086   1.401       .  A
C1085      C1090   1.399       .  A
C1085      H1095   1.086       .  S
C1086      C1091   1.482       .  S
C1086      C1087   1.413       .  A
C1087      C1088   1.401       .  A
C1087      S1092   1.804       .  S
C1088      C1089   1.405       .  A
C1088      H1093   1.085       .  S
C1089      C1090   1.417       .  A
C1090      S1094   1.803       .  S
C1091      C1096   1.409       .  A
C1091      C1100   1.404       .  A
S1092      H1108   1.405       .  S
S1094      H1105   1.407       .  S
C1096      C1097   1.401       .  A
C1096      S1101   1.808       .  S
C1097      C1098   1.407       .  A
C1097      H1102   1.078       .  S
C1098      C1099   1.415       .  A
C1099      C1100   1.403       .  A
C1099      S1103   1.802       .  S
C1100      H1104   1.078       .  S
S1101      H1106   1.407       .  S
S1103      H1107   1.407       .  S
C1109      C1110   1.400       .  A
C1109      C1114   1.400       .  A
C1109      H1119   1.084       .  S
C1110      C1115   1.475       .  S
C1110      C1111   1.411       .  A
C1111      C1112   1.397       .  A
C1111      S1116   1.806       .  S
C1112      C1113   1.406       .  A
C1112      H1117   1.084       .  S
C1113      C1114   1.417       .  A
C1114      S1118   1.799       .  S
C1115      C1120   1.407       .  A
C1115      C1124   1.401       .  A
S1116      H1132   1.403       .  S
S1118      H1129   1.407       .  S
C1120      C1121   1.401       .  A
C1120      S1125   1.807       .  S
C1121      C1122   1.405       .  A
C1121      H1126   1.083       .  S
C1122      C1123   1.416       .  A
C1123      C1124   1.400       .  A
C1123      S1127   1.803       .  S
C1124      H1128   1.084       .  S
S1125      H1130   1.407       .  S
S1127      H1131   1.406       .  S
C1133      C1134   1.402       .  A
C1133      C1138   1.399       .  A
C1133      H1143   1.084       .  S
C1134      C1139   1.477       .  S
C1134      C1135   1.414       .  A
C1135      C1136   1.400       .  A
C1135      S1140   1.807       .  S
C1136      C1137   1.403       .  A
C1136      H1141   1.085       .  S
C1137      C1138   1.413       .  A
C1138      S1142   1.804       .  S
C1139      C1144   1.408       .  A
C1139      C1148   1.399       .  A
S1140      H1156   1.403       .  S
S1142      H1153   1.406       .  S
C1144      C1145   1.405       .  A
C1144      S1149   1.805       .  S
C1145      C1146   1.407       .  A
C1145      H1150   1.083       .  S
C1146      C1147   1.416       .  A
C1147      C1148   1.397       .  A
C1147      S1151   1.804       .  S
C1148      H1152   1.084       .  S
S1149      H1154   1.407       .  S
S1151      H1155   1.407       .  S
C1157      C1158   1.403       .  A
C1157      C1162   1.400       .  A
C1157      H1167   1.085       .  S
C1158      C1163   1.481       .  S
C1158      C1159   1.412       .  A
C1159      C1160   1.399       .  A
C1159      S1164   1.804       .  S
C1160      C1161   1.405       .  A
C1160      H1165   1.085       .  S
C1161      C1162   1.414       .  A
C1162      S1166   1.804       .  S
C1163      C1168   1.410       .  A
C1163      C1172   1.401       .  A
S1164      H1180   1.405       .  S
S1166      H1177   1.406       .  S
C1168      C1169   1.405       .  A
C1168      S1173   1.806       .  S
C1169      C1170   1.405       .  A
C1169      H1174   1.083       .  S
C1170      C1171   1.415       .  A
C1171      C1172   1.399       .  A
C1171      S1175   1.803       .  S
C1172      H1176   1.084       .  S
S1173      H1178   1.407       .  S
S1175      H1179   1.407       .  S
C1181      C1182   1.402       .  A
C1181      C1186   1.400       .  A
C1181      H1191   1.084       .  S
C1182      C1187   1.478       .  S
C1182      C1183   1.411       .  A
C1183      C1184   1.398       .  A
C1183      S1188   1.805       .  S
C1184      C1185   1.405       .  A
C1184      H1189   1.084       .  S
C1185      C1186   1.416       .  A
C1186      S1190   1.803       .  S
C1187      C1192   1.409       .  A
C1187      C1196   1.400       .  A
S1188      H1204   1.406       .  S
S1190      H1201   1.406       .  S
C1192      C1193   1.403       .  A
C1192      S1197   1.807       .  S
C1193      C1194   1.407       .  A
C1193      H1198   1.083       .  S
C1194      C1195   1.415       .  A
C1195      C1196   1.397       .  A
C1195      S1199   1.803       .  S
C1196      H1200   1.084       .  S
S1197      H1202   1.407       .  S
S1199      H1203   1.407       .  S
C1205      C1206   1.403       .  A
C1205      C1210   1.401       .  A
C1205      H1215   1.084       .  S
C1206      C1211   1.480       .  S
C1206      C1207   1.411       .  A
C1207      C1208   1.397       .  A
C1207      S1212   1.804       .  S
C1208      C1209   1.405       .  A
C1208      H1213   1.084       .  S
C1209      C1210   1.417       .  A
C1210      S1214   1.803       .  S
C1211      C1216   1.409       .  A
C1211      C1220   1.404       .  A
S1212      H1228   1.406       .  S
S1214      H1225   1.407       .  S
C1216      C1217   1.398       .  A
C1216      S1221   1.809       .  S
C1217      C1218   1.405       .  A
C1217      H1222   1.083       .  S
C1218      C1219   1.413       .  A
C1219      C1220   1.403       .  A
C1219      S1223   1.801       .  S
C1220      H1224   1.083       .  S
S1221      H1226   1.407       .  S
S1223      H1227   1.407       .  S
C1229      C1230   1.400       .  A
C1229      C1234   1.400       .  A
C1229      H1239   1.085       .  S
C1230      C1235   1.480       .  S
C1230      C1231   1.412       .  A
C1231      C1232   1.402       .  A
C1231      S1236   1.803       .  S
C1232      C1233   1.404       .  A
C1232      H1237   1.084       .  S
C1233      C1234   1.417       .  A
C1234      S1238   1.803       .  S
C1235      C1240   1.408       .  A
C1235      C1244   1.401       .  A
S1236      H1252   1.405       .  S
S1238      H1249   1.407       .  S
C1240      C1241   1.405       .  A
C1240      S1245   1.805       .  S
C1241      C1242   1.406       .  A
C1241      H1246   1.083       .  S
C1242      C1243   1.416       .  A
C1243      C1244   1.399       .  A
C1243      S1247   1.804       .  S
C1244      H1248   1.084       .  S
S1245      H1250   1.407       .  S
S1247      H1251   1.407       .  S
C1253      C1254   1.401       .  A
C1253      C1258   1.400       .  A
C1253      H1263   1.084       .  S
C1254      C1259   1.483       .  S
C1254      C1255   1.412       .  A
C1255      C1256   1.402       .  A
C1255      S1260   1.804       .  S
C1256      C1257   1.406       .  A
C1256      H1261   1.084       .  S
C1257      C1258   1.417       .  A
C1258      S1262   1.804       .  S
C1259      C1264   1.409       .  A
C1259      C1268   1.402       .  A
S1260      H1276   1.405       .  S
S1262      H1273   1.407       .  S
C1264      C1265   1.404       .  A
C1264      S1269   1.806       .  S
C1265      C1266   1.405       .  A
C1265      H1270   1.083       .  S
C1266      C1267   1.415       .  A
C1267      C1268   1.401       .  A
C1267      S1271   1.804       .  S
C1268      H1272   1.084       .  S
S1269      H1274   1.407       .  S
S1271      H1275   1.407       .  S
C1277      C1278   1.402       .  A
C1277      C1282   1.400       .  A
C1277      H1287   1.085       .  S
C1278      C1283   1.479       .  S
C1278      C1279   1.413       .  A
C1279      C1280   1.400       .  A
C1279      S1284   1.804       .  S
C1280      C1281   1.404       .  A
C1280      H1285   1.084       .  S
C1281      C1282   1.414       .  A
C1282      S1286   1.803       .  S
C1283      C1288   1.405       .  A
C1283      C1292   1.402       .  A
S1284      H1300   1.405       .  S
S1286      H1297   1.407       .  S
C1288      C1289   1.400       .  A
C1288      S1293   1.808       .  S
C1289      C1290   1.411       .  A
C1289      H1294   1.082       .  S
C1290      C1291   1.420       .  A
C1291      C1292   1.403       .  A
C1291      S1295   1.801       .  S
C1292      H1296   1.083       .  S
S1293      H1298   1.407       .  S
S1295      H1299   1.407       .  S
C1301      C1302   1.402       .  A
C1301      C1306   1.400       .  A
C1301      H1311   1.084       .  S
C1302      C1307   1.479       .  S
C1302      C1303   1.412       .  A
C1303      C1304   1.400       .  A
C1303      S1308   1.805       .  S
C1304      C1305   1.404       .  A
C1304      H1309   1.084       .  S
C1305      C1306   1.415       .  A
C1306      S1310   1.804       .  S
C1307      C1312   1.407       .  A
C1307      C1316   1.401       .  A
S1308      H1324   1.404       .  S
S1310      H1321   1.406       .  S
C1312      C1313   1.403       .  A
C1312      S1317   1.806       .  S
C1313      C1314   1.407       .  A
C1313      H1318   1.083       .  S
C1314      C1315   1.416       .  A
C1315      C1316   1.401       .  A
C1315      S1319   1.799       .  S
C1316      H1320   1.084       .  S
S1317      H1322   1.407       .  S
S1319      H1323   1.406       .  S
C1325      C1326   1.402       .  A
C1325      C1330   1.399       .  A
C1325      H1335   1.084       .  S
C1326      C1331   1.479       .  S
C1326      C1327   1.412       .  A
C1327      C1328   1.400       .  A
C1327      S1332   1.805       .  S
C1328      C1329   1.405       .  A
C1328      H1333   1.084       .  S
C1329      C1330   1.415       .  A
C1330      S1334   1.804       .  S
C1331      C1336   1.407       .  A
C1331      C1340   1.402       .  A
S1332      H1348   1.405       .  S
S1334      H1345   1.406       .  S
C1336      C1337   1.401       .  A
C1336      S1341   1.807       .  S
C1337      C1338   1.406       .  A
C1337      H1342   1.083       .  S
C1338      C1339   1.414       .  A
C1339      C1340   1.401       .  A
C1339      S1343   1.802       .  S
C1340      H1344   1.083       .  S
S1341      H1346   1.407       .  S
S1343      H1347   1.407       .  S
C1349      C1350   1.402       .  A
C1349      C1354   1.399       .  A
C1349      H1359   1.084       .  S
C1350      C1355   1.486       .  S
C1350      C1351   1.412       .  A
C1351      C1352   1.400       .  A
C1351      S1356   1.804       .  S
C1352      C1353   1.408       .  A
C1352      H1357   1.084       .  S
C1353      C1354   1.419       .  A
C1354      S1358   1.802       .  S
C1355      C1360   1.413       .  A
C1355      C1364   1.404       .  A
S1356      H1372   1.406       .  S
S1358      H1369   1.408       .  S
C1360      C1361   1.405       .  A
C1360      S1365   1.807       .  S
C1361      C1362   1.402       .  A
C1361      H1366   1.083       .  S
C1362      C1363   1.412       .  A
C1363      C1364   1.397       .  A
C1363      S1367   1.805       .  S
C1364      H1368   1.084       .  S
S1365      H1370   1.407       .  S
S1367      H1371   1.407       .  S
C1373      C1374   1.402       .  A
C1373      C1378   1.399       .  A
C1373      H1383   1.084       .  S
C1374      C1379   1.478       .  S
C1374      C1375   1.410       .  A
C1375      C1376   1.397       .  A
C1375      S1380   1.805       .  S
C1376      C1377   1.407       .  A
C1376      H1381   1.084       .  S
C1377      C1378   1.416       .  A
C1378      S1382   1.802       .  S
C1379      C1384   1.409       .  A
C1379      C1388   1.402       .  A
S1380      H1396   1.406       .  S
S1382      H1393   1.407       .  S
C1384      C1385   1.400       .  A
C1384      S1389   1.808       .  S
C1385      C1386   1.405       .  A
C1385      H1390   1.083       .  S
C1386      C1387   1.413       .  A
C1387      C1388   1.399       .  A
C1387      S1391   1.801       .  S
C1388      H1392   1.084       .  S
S1389      H1394   1.407       .  S
S1391      H1395   1.407       .  S
C1397      C1398   1.400       .  A
C1397      C1402   1.396       .  A
C1397      H1407   1.083       .  S
C1398      C1403   1.482       .  S
C1398      C1399   1.411       .  A
C1399      C1400   1.401       .  A
C1399      S1404   1.804       .  S
C1400      C1401   1.410       .  A
C1400      H1405   1.083       .  S
C1401      C1402   1.421       .  A
C1402      S1406   1.801       .  S
C1403      C1408   1.412       .  A
C1403      C1412   1.400       .  A
S1404      H1420   1.406       .  S
S1406      H1417   1.408       .  S
C1408      C1409   1.405       .  A
C1408      S1413   1.806       .  S
C1409      C1410   1.405       .  A
C1409      H1414   1.083       .  S
C1410      C1411   1.416       .  A
C1411      C1412   1.394       .  A
C1411      S1415   1.805       .  S
C1412      H1416   1.084       .  S
S1413      H1418   1.407       .  S
S1415      H1419   1.407       .  S
C1421      C1422   1.402       .  A
C1421      C1426   1.404       .  A
C1421      H1431   1.083       .  S
C1422      C1427   1.477       .  S
C1422      C1423   1.408       .  A
C1423      C1424   1.393       .  A
C1423      S1428   1.806       .  S
C1424      C1425   1.409       .  A
C1424      H1429   1.083       .  S
C1425      C1426   1.419       .  A
C1426      S1430   1.799       .  S
C1427      C1432   1.408       .  A
C1427      C1436   1.400       .  A
S1428      H1444   1.405       .  S
S1430      H1441   1.408       .  S
C1432      C1433   1.401       .  A
C1432      S1437   1.808       .  S
C1433      C1434   1.406       .  A
C1433      H1438   1.082       .  S
C1434      C1435   1.417       .  A
C1435      C1436   1.400       .  A
C1435      S1439   1.801       .  S
C1436      H1440   1.083       .  S
S1437      H1442   1.407       .  S
S1439      H1443   1.407       .  S
C1445      C1446   1.400       .  A
C1445      C1450   1.397       .  A
C1445      H1455   1.084       .  S
C1446      C1451   1.478       .  S
C1446      C1447   1.411       .  A
C1447      C1448   1.402       .  A
C1447      S1452   1.803       .  S
C1448      C1449   1.407       .  A
C1448      H1453   1.084       .  S
C1449      C1450   1.417       .  A
C1450      S1454   1.804       .  S
C1451      C1456   1.409       .  A
C1451      C1460   1.399       .  A
S1452      H1468   1.406       .  S
S1454      H1465   1.408       .  S
C1456      C1457   1.406       .  A
C1456      S1461   1.805       .  S
C1457      C1458   1.405       .  A
C1457      H1462   1.083       .  S
C1458      C1459   1.415       .  A
C1459      C1460   1.395       .  A
C1459      S1463   1.805       .  S
C1460      H1464   1.084       .  S
S1461      H1466   1.407       .  S
S1463      H1467   1.407       .  S
C1469      C1470   1.400       .  A
C1469      C1474   1.395       .  A
C1469      H1479   1.085       .  S
C1470      C1475   1.480       .  S
C1470      C1471   1.414       .  A
C1471      C1472   1.404       .  A
C1471      S1476   1.803       .  S
C1472      C1473   1.404       .  A
C1472      H1477   1.084       .  S
C1473      C1474   1.415       .  A
C1474      S1478   1.806       .  S
C1475      C1480   1.410       .  A
C1475      C1484   1.402       .  A
S1476      H1492   1.406       .  S
S1478      H1489   1.407       .  S
C1480      C1481   1.402       .  A
C1480      S1485   1.807       .  S
C1481      C1482   1.406       .  A
C1481      H1486   1.083       .  S
C1482      C1483   1.415       .  A
C1483      C1484   1.400       .  A
C1483      S1487   1.803       .  S
C1484      H1488   1.083       .  S
S1485      H1490   1.407       .  S
S1487      H1491   1.408       .  S
C1493      C1494   1.403       .  A
C1493      C1498   1.401       .  A
C1493      H1503   1.084       .  S
C1494      C1499   1.483       .  S
C1494      C1495   1.413       .  A
C1495      C1496   1.400       .  A
C1495      S1500   1.804       .  S
C1496      C1497   1.404       .  A
C1496      H1501   1.085       .  S
C1497      C1498   1.414       .  A
C1498      S1502   1.804       .  S
C1499      C1504   1.409       .  A
C1499      C1508   1.403       .  A
S1500      H1516   1.405       .  S
S1502      H1513   1.406   1_545  S
C1504      C1505   1.403       .  A
C1504      S1509   1.807       .  S
C1505      C1506   1.406       .  A
C1505      H1510   1.083       .  S
C1506      C1507   1.415       .  A
C1507      C1508   1.402       .  A
C1507      S1511   1.803       .  S
C1508      H1512   1.084       .  S
S1509      H1514   1.407       .  S
S1511      H1515   1.407       .  S
C1517      C1518   1.402       .  A
C1517      C1522   1.397       .  A
C1517      H1527   1.085       .  S
C1518      C1523   1.479       .  S
C1518      C1519   1.413       .  A
C1519      C1520   1.400       .  A
C1519      S1524   1.803       .  S
C1520      C1521   1.401       .  A
C1520      H1525   1.084       .  S
C1521      C1522   1.412       .  A
C1522      S1526   1.805       .  S
C1523      C1528   1.410       .  A
C1523      C1532   1.401       .  A
S1524      H1540   1.406       .  S
S1526      H1537   1.407       .  S
C1528      C1529   1.404       .  A
C1528      S1533   1.806       .  S
C1529      C1530   1.404       .  A
C1529      H1534   1.083       .  S
C1530      C1531   1.413       .  A
C1531      C1532   1.396       .  A
C1531      S1535   1.805       .  S
C1532      H1536   1.084       .  S
S1533      H1538   1.407       .  S
S1535      H1539   1.407       .  S
C1541      C1542   1.402       .  A
C1541      C1546   1.395       .  A
C1541      H1551   1.084       .  S
C1542      C1547   1.481       .  S
C1542      C1543   1.414       .  A
C1543      C1544   1.403       .  A
C1543      S1548   1.803       .  S
C1544      C1545   1.404       .  A
C1544      H1549   1.084       .  S
C1545      C1546   1.411       .  A
C1546      S1550   1.804       .  S
C1547      C1552   1.409       .  A
C1547      C1556   1.401       .  A
S1548      H1564   1.406       .  S
S1550      H1561   1.407       .  S
C1552      C1553   1.402       .  A
C1552      S1557   1.807       .  S
C1553      C1554   1.408       .  A
C1553      H1558   1.082       .  S
C1554      C1555   1.420       .  A
C1555      C1556   1.398       .  A
C1555      S1559   1.803       .  S
C1556      H1560   1.084       .  S
S1557      H1562   1.407       .  S
S1559      H1563   1.408       .  S
C1565      C1566   1.401       .  A
C1565      C1570   1.399       .  A
C1565      H1575   1.084       .  S
C1566      C1571   1.479       .  S
C1566      C1567   1.411       .  A
C1567      C1568   1.399       .  A
C1567      S1572   1.804       .  S
C1568      C1569   1.406       .  A
C1568      H1573   1.083       .  S
C1569      C1570   1.416       .  A
C1570      S1574   1.801       .  S
C1571      C1576   1.409       .  A
C1571      C1580   1.401       .  A
S1572      H1588   1.405       .  S
S1574      H1585   1.407       .  S
C1576      C1577   1.402       .  A
C1576      S1581   1.807       .  S
C1577      C1578   1.405       .  A
C1577      H1582   1.083       .  S
C1578      C1579   1.417       .  A
C1579      C1580   1.401       .  A
C1579      S1583   1.804   1_565  S
C1580      H1584   1.084       .  S
S1581      H1586   1.407       .  S
S1583      H1587   1.406       .  S
C1589      C1590   1.400       .  A
C1589      C1594   1.396       .  A
C1589      H1599   1.084       .  S
C1590      C1595   1.475       .  S
C1590      C1591   1.412       .  A
C1591      C1592   1.400       .  A
C1591      S1596   1.805       .  S
C1592      C1593   1.405       .  A
C1592      H1597   1.084       .  S
C1593      C1594   1.414       .  A
C1594      S1598   1.804       .  S
C1595      C1600   1.409       .  A
C1595      C1604   1.401       .  A
S1596      H1612   1.405       .  S
S1598      H1609   1.407       .  S
C1600      C1601   1.401       .  A
C1600      S1605   1.806       .  S
C1601      C1602   1.403       .  A
C1601      H1606   1.083       .  S
C1602      C1603   1.413       .  A
C1603      C1604   1.398       .  A
C1603      S1607   1.805   1_545  S
C1604      H1608   1.084       .  S
S1605      H1610   1.407       .  S
S1607      H1611   1.406       .  S
C1613      C1614   1.402       .  A
C1613      C1618   1.399       .  A
C1613      H1623   1.084       .  S
C1614      C1619   1.479       .  S
C1614      C1615   1.412       .  A
C1615      C1616   1.398       .  A
C1615      S1620   1.805       .  S
C1616      C1617   1.406       .  A
C1616      H1621   1.084       .  S
C1617      C1618   1.415       .  A
C1618      S1622   1.803       .  S
C1619      C1624   1.410       .  A
C1619      C1628   1.402       .  A
S1620      H1636   1.406       .  S
S1622      H1633   1.407       .  S
C1624      C1625   1.402       .  A
C1624      S1629   1.807       .  S
C1625      C1626   1.404       .  A
C1625      H1630   1.083       .  S
C1626      C1627   1.412       .  A
C1627      C1628   1.398       .  A
C1627      S1631   1.804       .  S
C1628      H1632   1.084       .  S
S1629      H1634   1.407       .  S
S1631      H1635   1.407   1_556  S
C1637      C1638   1.402       .  A
C1637      C1642   1.400       .  A
C1637      H1647   1.084       .  S
C1638      C1643   1.478       .  S
C1638      C1639   1.412       .  A
C1639      C1640   1.399       .  A
C1639      S1644   1.806       .  S
C1640      C1641   1.404       .  A
C1640      H1645   1.084       .  S
C1641      C1642   1.413       .  A
C1642      S1646   1.803       .  S
C1643      C1648   1.407       .  A
C1643      C1652   1.401       .  A
S1644      H1660   1.404       .  S
S1646      H1657   1.407       .  S
C1648      C1649   1.402       .  A
C1648      S1653   1.806       .  S
C1649      C1650   1.406       .  A
C1649      H1654   1.083       .  S
C1650      C1651   1.416       .  A
C1651      C1652   1.400       .  A
C1651      S1655   1.804       .  S
C1652      H1656   1.084       .  S
S1653      H1658   1.407       .  S
S1655      H1659   1.406   1_554  S
C1661      C1662   1.402       .  A
C1661      C1666   1.402       .  A
C1661      H1671   1.084       .  S
C1662      C1667   1.477       .  S
C1662      C1663   1.410       .  A
C1663      C1664   1.397       .  A
C1663      S1668   1.806       .  S
C1664      C1665   1.406       .  A
C1664      H1669   1.084       .  S
C1665      C1666   1.416       .  A
C1666      S1670   1.802       .  S
C1667      C1672   1.408       .  A
C1667      C1676   1.401       .  A
S1668      H1684   1.404       .  S
S1670      H1681   1.407       .  S
C1672      C1673   1.403       .  A
C1672      S1677   1.806       .  S
C1673      C1674   1.405       .  A
C1673      H1678   1.083       .  S
C1674      C1675   1.415       .  A
C1675      C1676   1.398       .  A
C1675      S1679   1.804       .  S
C1676      H1680   1.084       .  S
S1677      H1682   1.407       .  S
S1679      H1683   1.406   1_556  S
C1685      C1686   1.404       .  A
C1685      C1690   1.400       .  A
C1685      H1695   1.084       .  S
C1686      C1691   1.486       .  S
C1686      C1687   1.414       .  A
C1687      C1688   1.401       .  A
C1687      S1692   1.804       .  S
C1688      C1689   1.403       .  A
C1688      H1693   1.084       .  S
C1689      C1690   1.412       .  A
C1690      S1694   1.804   1_545  S
C1691      C1696   1.408       .  A
C1691      C1700   1.403       .  A
S1692      H1708   1.406       .  S
S1694      H1705   1.406       .  S
C1696      C1697   1.401       .  A
C1696      S1701   1.808       .  S
C1697      C1698   1.410       .  A
C1697      H1702   1.082       .  S
C1698      C1699   1.420       .  A
C1699      C1700   1.402       .  A
C1699      S1703   1.801       .  S
C1700      H1704   1.084       .  S
S1701      H1706   1.407       .  S
S1703      H1707   1.408       .  S
C1709      C1710   1.402       .  A
C1709      C1714   1.399       .  A
C1709      H1719   1.084       .  S
C1710      C1715   1.484       .  S
C1710      C1711   1.415       .  A
C1711      C1712   1.401       .  A
C1711      S1716   1.805       .  S
C1712      C1713   1.404       .  A
C1712      H1717   1.084       .  S
C1713      C1714   1.414       .  A
C1714      S1718   1.804       .  S
C1715      C1720   1.410       .  A
C1715      C1724   1.402       .  A
S1716      H1732   1.405       .  S
S1718      H1729   1.407   1_565  S
C1720      C1721   1.404       .  A
C1720      S1725   1.808       .  S
C1721      C1722   1.407       .  A
C1721      H1726   1.082       .  S
C1722      C1723   1.418       .  A
C1723      C1724   1.402       .  A
C1723      S1727   1.803       .  S
C1724      H1728   1.083       .  S
S1725      H1730   1.406       .  S
S1727      H1731   1.407       .  S
C1733      C1734   1.402       .  A
C1733      C1738   1.400       .  A
C1733      H1743   1.084       .  S
C1734      C1739   1.478       .  S
C1734      C1735   1.412       .  A
C1735      C1736   1.398       .  A
C1735      S1740   1.804       .  S
C1736      C1737   1.403       .  A
C1736      H1741   1.084       .  S
C1737      C1738   1.414       .  A
C1738      S1742   1.804       .  S
C1739      C1744   1.409       .  A
C1739      C1748   1.400       .  A
S1740      H1756   1.405       .  S
S1742      H1753   1.406       .  S
C1744      C1745   1.402       .  A
C1744      S1749   1.807       .  S
C1745      C1746   1.405       .  A
C1745      H1750   1.082       .  S
C1746      C1747   1.416       .  A
C1747      C1748   1.399       .  A
C1747      S1751   1.801       .  S
C1748      H1752   1.084       .  S
S1749      H1754   1.407       .  S
S1751      H1755   1.407       .  S
C1757      C1758   1.402       .  A
C1757      C1762   1.400       .  A
C1757      H1767   1.084       .  S
C1758      C1763   1.479       .  S
C1758      C1759   1.411       .  A
C1759      C1760   1.400       .  A
C1759      S1764   1.804       .  S
C1760      C1761   1.405       .  A
C1760      H1765   1.084       .  S
C1761      C1762   1.416       .  A
C1762      S1766   1.804       .  S
C1763      C1768   1.408       .  A
C1763      C1772   1.400       .  A
S1764      H1780   1.405       .  S
S1766      H1777   1.406   1_554  S
C1768      C1769   1.404       .  A
C1768      S1773   1.807       .  S
C1769      C1770   1.408       .  A
C1769      H1774   1.082       .  S
C1770      C1771   1.418       .  A
C1771      C1772   1.399       .  A
C1771      S1775   1.803       .  S
C1772      H1776   1.084       .  S
S1773      H1778   1.407       .  S
S1775      H1779   1.408       .  S
C1781      C1782   1.403       .  A
C1781      C1786   1.401       .  A
C1781      H1791   1.085       .  S
C1782      C1787   1.484       .  S
C1782      C1783   1.412       .  A
C1783      C1784   1.400       .  A
C1783      S1788   1.803       .  S
C1784      C1785   1.405       .  A
C1784      H1789   1.084       .  S
C1785      C1786   1.415       .  A
C1786      S1790   1.804       .  S
C1787      C1792   1.411       .  A
C1787      C1796   1.403       .  A
S1788      H1804   1.406       .  S
S1790      H1801   1.407   1_554  S
C1792      C1793   1.405       .  A
C1792      S1797   1.806       .  S
C1793      C1794   1.404       .  A
C1793      H1798   1.083       .  S
C1794      C1795   1.413       .  A
C1795      C1796   1.400       .  A
C1795      S1799   1.804       .  S
C1796      H1800   1.084       .  S
S1797      H1802   1.407       .  S
S1799      H1803   1.407       .  S
C1805      C1806   1.403       .  A
C1805      C1810   1.402       .  A
C1805      H1815   1.084       .  S
C1806      C1811   1.483       .  S
C1806      C1807   1.413       .  A
C1807      C1808   1.401       .  A
C1807      S1812   1.805       .  S
C1808      C1809   1.404       .  A
C1808      H1813   1.084       .  S
C1809      C1810   1.413       .  A
C1810      S1814   1.804       .  S
C1811      C1816   1.407       .  A
C1811      C1820   1.402       .  A
S1812      H1828   1.403       .  S
S1814      H1825   1.406       .  S
C1816      C1817   1.404       .  A
C1816      S1821   1.807       .  S
C1817      C1818   1.409       .  A
C1817      H1822   1.082       .  S
C1818      C1819   1.419       .  A
C1819      C1820   1.403       .  A
C1819      S1823   1.802       .  S
C1820      H1824   1.084       .  S
S1821      H1826   1.407       .  S
S1823      H1827   1.407       .  S
C1829      C1830   1.401       .  A
C1829      C1834   1.402       .  A
C1829      H1839   1.084       .  S
C1830      C1835   1.481       .  S
C1830      C1831   1.411       .  A
C1831      C1832   1.398       .  A
C1831      S1836   1.806       .  S
C1832      C1833   1.408       .  A
C1832      H1837   1.083       .  S
C1833      C1834   1.419       .  A
C1834      S1838   1.802       .  S
C1835      C1840   1.406       .  A
C1835      C1844   1.402       .  A
S1836      H1852   1.405       .  S
S1838      H1849   1.408       .  S
C1840      C1841   1.397       .  A
C1840      S1845   1.810       .  S
C1841      C1842   1.411       .  A
C1841      H1846   1.081       .  S
C1842      C1843   1.421       .  A
C1843      C1844   1.405       .  A
C1843      S1847   1.800       .  S
C1844      H1848   1.083       .  S
S1845      H1850   1.406       .  S
S1847      H1851   1.408       .  S
C1853      C1854   1.403       .  A
C1853      C1858   1.405       .  A
C1853      H1863   1.084       .  S
C1854      C1859   1.480       .  S
C1854      C1855   1.411       .  A
C1855      C1856   1.396       .  A
C1855      S1860   1.806       .  S
C1856      C1857   1.405       .  A
C1856      H1861   1.084       .  S
C1857      C1858   1.416       .  A
C1858      S1862   1.801       .  S
C1859      C1864   1.407       .  A
C1859      C1868   1.404       .  A
S1860      H1876   1.404       .  S
S1862      H1873   1.407       .  S
C1864      C1865   1.397       .  A
C1864      S1869   1.809       .  S
C1865      C1866   1.405       .  A
C1865      H1870   1.083       .  S
C1866      C1867   1.416       .  A
C1867      C1868   1.406       .  A
C1867      S1871   1.802       .  S
C1868      H1872   1.084       .  S
S1869      H1874   1.407       .  S
S1871      H1875   1.407       .  S
C1877      C1878   1.402       .  A
C1877      C1882   1.399       .  A
C1877      H1887   1.084       .  S
C1878      C1883   1.482       .  S
C1878      C1879   1.411       .  A
C1879      C1880   1.400       .  A
C1879      S1884   1.804       .  S
C1880      C1881   1.406       .  A
C1880      H1885   1.084       .  S
C1881      C1882   1.417       .  A
C1882      S1886   1.804       .  S
C1883      C1888   1.411       .  A
C1883      C1892   1.401       .  A
S1884      H1900   1.406       .  S
S1886      H1897   1.407       .  S
C1888      C1889   1.406       .  A
C1888      S1893   1.805       .  S
C1889      C1890   1.404       .  A
C1889      H1894   1.083       .  S
C1890      C1891   1.413       .  A
C1891      C1892   1.396       .  A
C1891      S1895   1.805       .  S
C1892      H1896   1.084       .  S
S1893      H1898   1.407       .  S
S1895      H1899   1.407       .  S
C1901      C1902   1.398       .  A
C1901      C1906   1.393       .  A
C1901      H1911   1.085       .  S
C1902      C1907   1.474       .  S
C1902      C1903   1.411       .  A
C1903      C1904   1.403       .  A
C1903      S1908   1.803       .  S
C1904      C1905   1.406       .  A
C1904      H1909   1.084       .  S
C1905      C1906   1.414       .  A
C1906      S1910   1.802       .  S
C1907      C1912   1.408       .  A
C1907      C1916   1.402       .  A
S1908      H1924   1.406       .  S
S1910      H1921   1.407       .  S
C1912      C1913   1.399       .  A
C1912      S1917   1.808       .  S
C1913      C1914   1.405       .  A
C1913      H1918   1.083       .  S
C1914      C1915   1.414       .  A
C1915      C1916   1.400       .  A
C1915      S1919   1.803       .  S
C1916      H1920   1.083       .  S
S1917      H1922   1.407       .  S
S1919      H1923   1.407       .  S
C1925      C1926   1.404       .  A
C1925      C1930   1.396       .  A
C1925      H1935   1.084       .  S
C1926      C1931   1.484       .  S
C1926      C1927   1.415       .  A
C1927      C1928   1.401       .  A
C1927      S1932   1.803       .  S
C1928      C1929   1.402       .  A
C1928      H1933   1.084       .  S
C1929      C1930   1.410       .  A
C1930      S1934   1.802       .  S
C1931      C1936   1.411       .  A
C1931      C1940   1.402       .  A
S1932      H1948   1.406       .  S
S1934      H1945   1.406       .  S
C1936      C1937   1.405       .  A
C1936      S1941   1.807       .  S
C1937      C1938   1.406       .  A
C1937      H1942   1.083       .  S
C1938      C1939   1.416       .  A
C1939      C1940   1.396       .  A
C1939      S1943   1.804       .  S
C1940      H1944   1.084       .  S
S1941      H1946   1.407       .  S
S1943      H1947   1.407       .  S
C1949      C1950   1.400       .  A
C1949      C1954   1.396       .  A
C1949      H1959   1.085       .  S
C1950      C1955   1.476       .  S
C1950      C1951   1.410       .  A
C1951      C1952   1.400       .  A
C1951      S1956   1.804       .  S
C1952      C1953   1.406       .  A
C1952      H1957   1.084       .  S
C1953      C1954   1.417       .  A
C1954      S1958   1.804       .  S
C1955      C1960   1.406       .  A
C1955      C1964   1.399       .  A
S1956      H1972   1.405       .  S
S1958      H1969   1.407       .  S
C1960      C1961   1.402       .  A
C1960      S1965   1.806       .  S
C1961      C1962   1.409       .  A
C1961      H1966   1.082       .  S
C1962      C1963   1.421       .  A
C1963      C1964   1.398       .  A
C1963      S1967   1.803       .  S
C1964      H1968   1.084       .  S
S1965      H1970   1.407       .  S
S1967      H1971   1.408       .  S
C1973      C1974   1.401       .  A
C1973      C1978   1.397       .  A
C1973      H1983   1.084       .  S
C1974      C1979   1.483       .  S
C1974      C1975   1.414       .  A
C1975      C1976   1.404       .  A
C1975      S1980   1.803       .  S
C1976      C1977   1.404       .  A
C1976      H1981   1.084       .  S
C1977      C1978   1.413       .  A
C1978      S1982   1.802       .  S
C1979      C1984   1.410       .  A
C1979      C1988   1.405       .  A
S1980      H1996   1.406       .  S
S1982      H1993   1.407       .  S
C1984      C1985   1.400       .  A
C1984      S1989   1.808       .  S
C1985      C1986   1.404       .  A
C1985      H1990   1.083       .  S
C1986      C1987   1.414       .  A
C1987      C1988   1.404       .  A
C1987      S1991   1.803       .  S
C1988      H1992   1.083       .  S
S1989      H1994   1.407       .  S
S1991      H1995   1.407       .  S
C1997      C1998   1.400       .  A
C1997      C2002   1.397       .  A
C1997      H2007   1.085       .  S
C1998      C2003   1.482       .  S
C1998      C1999   1.413       .  A
C1999      C2000   1.405       .  A
C1999      S2004   1.803       .  S
C2000      C2001   1.406       .  A
C2000      H2005   1.084       .  S
C2001      C2002   1.417       .  A
C2002      S2006   1.805       .  S
C2003      C2008   1.410       .  A
C2003      C2012   1.402       .  A
S2004      H2020   1.406       .  S
S2006      H2017   1.407       .  S
C2008      C2009   1.406       .  A
C2008      S2013   1.806       .  S
C2009      C2010   1.405       .  A
C2009      H2014   1.083       .  S
C2010      C2011   1.413       .  A
C2011      C2012   1.398       .  A
C2011      S2015   1.804       .  S
C2012      H2016   1.084       .  S
S2013      H2018   1.407       .  S
S2015      H2019   1.407       .  S
C2021      C2022   1.402       .  A
C2021      C2026   1.402       .  A
C2021      H2031   1.084       .  S
C2022      C2027   1.475       .  S
C2022      C2023   1.410       .  A
C2023      C2024   1.394       .  A
C2023      S2028   1.806       .  S
C2024      C2025   1.407       .  A
C2024      H2029   1.084       .  S
C2025      C2026   1.416       .  A
C2026      S2030   1.800       .  S
C2027      C2032   1.407       .  A
C2027      C2036   1.400       .  A
S2028      H2044   1.404       .  S
S2030      H2041   1.407       .  S
C2032      C2033   1.400       .  A
C2032      S2037   1.807       .  S
C2033      C2034   1.405       .  A
C2033      H2038   1.082       .  S
C2034      C2035   1.418       .  A
C2035      C2036   1.400       .  A
C2035      S2039   1.803       .  S
C2036      H2040   1.084       .  S
S2037      H2042   1.407       .  S
S2039      H2043   1.407       .  S
C2045      C2046   1.403       .  A
C2045      C2050   1.399       .  A
C2045      H2055   1.084       .  S
C2046      C2051   1.481       .  S
C2046      C2047   1.412       .  A
C2047      C2048   1.399       .  A
C2047      S2052   1.804       .  S
C2048      C2049   1.404       .  A
C2048      H2053   1.084       .  S
C2049      C2050   1.415       .  A
C2050      S2054   1.804   1_455  S
C2051      C2056   1.409       .  A
C2051      C2060   1.402       .  A
S2052      H2068   1.406       .  S
S2054      H2065   1.406       .  S
C2056      C2057   1.401       .  A
C2056      S2061   1.808       .  S
C2057      C2058   1.407       .  A
C2057      H2062   1.083       .  S
C2058      C2059   1.416       .  A
C2059      C2060   1.401       .  A
C2059      S2063   1.802       .  S
C2060      H2064   1.084       .  S
S2061      H2066   1.407       .  S
S2063      H2067   1.407       .  S
C2069      C2070   1.402       .  A
C2069      C2074   1.399       .  A
C2069      H2079   1.084       .  S
C2070      C2075   1.478       .  S
C2070      C2071   1.411       .  A
C2071      C2072   1.398       .  A
C2071      S2076   1.804       .  S
C2072      C2073   1.405       .  A
C2072      H2077   1.084       .  S
C2073      C2074   1.415       .  A
C2074      S2078   1.804   1_655  S
C2075      C2080   1.408       .  A
C2075      C2084   1.402       .  A
S2076      H2092   1.405       .  S
S2078      H2089   1.406       .  S
C2080      C2081   1.400       .  A
C2080      S2085   1.807       .  S
C2081      C2082   1.405       .  A
C2081      H2086   1.083       .  S
C2082      C2083   1.416       .  A
C2083      C2084   1.401       .  A
C2083      S2087   1.803       .  S
C2084      H2088   1.084       .  S
S2085      H2090   1.407       .  S
S2087      H2091   1.407       .  S
C2093      C2094   1.402       .  A
C2093      C2098   1.401       .  A
C2093      H2103   1.084       .  S
C2094      C2099   1.477       .  S
C2094      C2095   1.412       .  A
C2095      C2096   1.397       .  A
C2095      S2100   1.804       .  S
C2096      C2097   1.402       .  A
C2096      H2101   1.084       .  S
C2097      C2098   1.412       .  A
C2098      S2102   1.800       .  S
C2099      C2104   1.406       .  A
C2099      C2108   1.401       .  A
S2100      H2116   1.404       .  S
S2102      H2113   1.405       .  S
C2104      C2105   1.397       .  A
C2104      S2109   1.809       .  S
C2105      C2106   1.408       .  A
C2105      H2110   1.082       .  S
C2106      C2107   1.420       .  A
C2107      C2108   1.404       .  A
C2107      S2111   1.801       .  S
C2108      H2112   1.083       .  S
S2109      H2114   1.407       .  S
S2111      H2115   1.407       .  S
C2117      C2118   1.403       .  A
C2117      C2122   1.402       .  A
C2117      H2127   1.084       .  S
C2118      C2123   1.478       .  S
C2118      C2119   1.411       .  A
C2119      C2120   1.397       .  A
C2119      S2124   1.806       .  S
C2120      C2121   1.406       .  A
C2120      H2125   1.084       .  S
C2121      C2122   1.415       .  A
C2122      S2126   1.802       .  S
C2123      C2128   1.408       .  A
C2123      C2132   1.401       .  A
S2124      H2140   1.405       .  S
S2126      H2137   1.407       .  S
C2128      C2129   1.401       .  A
C2128      S2133   1.808       .  S
C2129      C2130   1.407       .  A
C2129      H2134   1.082       .  S
C2130      C2131   1.417       .  A
C2131      C2132   1.402       .  A
C2131      S2135   1.802       .  S
C2132      H2136   1.083       .  S
S2133      H2138   1.407       .  S
S2135      H2139   1.407       .  S
C2141      C2142   1.403       .  A
C2141      C2146   1.403       .  A
C2141      H2151   1.084       .  S
C2142      C2147   1.474       .  S
C2142      C2143   1.410       .  A
C2143      C2144   1.392       .  A
C2143      S2148   1.805       .  S
C2144      C2145   1.402       .  A
C2144      H2149   1.084       .  S
C2145      C2146   1.415       .  A
C2146      S2150   1.802       .  S
C2147      C2152   1.407       .  A
C2147      C2156   1.402       .  A
S2148      H2164   1.405       .  S
S2150      H2161   1.406       .  S
C2152      C2153   1.395       .  A
C2152      S2157   1.809       .  S
C2153      C2154   1.403       .  A
C2153      H2158   1.083       .  S
C2154      C2155   1.415       .  A
C2155      C2156   1.402       .  A
C2155      S2159   1.802       .  S
C2156      H2160   1.084       .  S
S2157      H2162   1.407       .  S
S2159      H2163   1.407       .  S
C2165      C2166   1.404       .  A
C2165      C2170   1.402       .  A
C2165      H2175   1.084       .  S
C2166      C2171   1.487       .  S
C2166      C2167   1.414       .  A
C2167      C2168   1.403       .  A
C2167      S2172   1.803       .  S
C2168      C2169   1.404       .  A
C2168      H2173   1.084       .  S
C2169      C2170   1.413       .  A
C2170      S2174   1.804       .  S
C2171      C2176   1.410       .  A
C2171      C2180   1.402       .  A
S2172      H2188   1.406       .  S
S2174      H2185   1.406   1_655  S
C2176      C2177   1.407       .  A
C2176      S2181   1.806       .  S
C2177      C2178   1.406       .  A
C2177      H2182   1.083       .  S
C2178      C2179   1.415       .  A
C2179      C2180   1.402       .  A
C2179      S2183   1.802       .  S
C2180      H2184   1.084       .  S
S2181      H2186   1.407       .  S
S2183      H2187   1.407       .  S
C2189      C2190   1.402       .  A
C2189      C2194   1.399       .  A
C2189      H2199   1.084       .  S
C2190      C2195   1.477       .  S
C2190      C2191   1.411       .  A
C2191      C2192   1.398       .  A
C2191      S2196   1.804       .  S
C2192      C2193   1.404       .  A
C2192      H2197   1.084       .  S
C2193      C2194   1.414       .  A
C2194      S2198   1.803       .  S
C2195      C2200   1.408       .  A
C2195      C2204   1.401       .  A
S2196      H2212   1.405       .  S
S2198      H2209   1.407       .  S
C2200      C2201   1.402       .  A
C2200      S2205   1.807       .  S
C2201      C2202   1.405       .  A
C2201      H2206   1.083       .  S
C2202      C2203   1.414       .  A
C2203      C2204   1.400       .  A
C2203      S2207   1.804       .  S
C2204      H2208   1.084       .  S
S2205      H2210   1.407       .  S
S2207      H2211   1.406       .  S
C2213      C2214   1.401       .  A
C2213      C2218   1.399       .  A
C2213      H2223   1.084       .  S
C2214      C2219   1.479       .  S
C2214      C2215   1.411       .  A
C2215      C2216   1.398       .  A
C2215      S2220   1.804       .  S
C2216      C2217   1.405       .  A
C2216      H2221   1.084       .  S
C2217      C2218   1.418       .  A
C2218      S2222   1.803       .  S
C2219      C2224   1.409       .  A
C2219      C2228   1.401       .  A
S2220      H2236   1.406       .  S
S2222      H2233   1.408       .  S
C2224      C2225   1.404       .  A
C2224      S2229   1.806       .  S
C2225      C2226   1.405       .  A
C2225      H2230   1.083   1_655  S
C2226      C2227   1.414       .  A
C2227      C2228   1.397       .  A
C2227      S2231   1.804       .  S
C2228      H2232   1.084       .  S
S2229      H2234   1.407   1_655  S
S2231      H2235   1.406   1_554  S
C2237      C2238   1.404       .  A
C2237      C2242   1.401       .  A
C2237      H2247   1.084       .  S
C2238      C2243   1.483       .  S
C2238      C2239   1.412       .  A
C2239      C2240   1.397       .  A
C2239      S2244   1.804       .  S
C2240      C2241   1.404       .  A
C2240      H2245   1.084       .  S
C2241      C2242   1.416       .  A
C2242      S2246   1.804   1_455  S
C2243      C2248   1.409       .  A
C2243      C2252   1.403       .  A
S2244      H2260   1.406       .  S
S2246      H2257   1.406       .  S
C2248      C2249   1.402       .  A
C2248      S2253   1.808       .  S
C2249      C2250   1.407       .  A
C2249      H2254   1.082       .  S
C2250      C2251   1.416       .  A
C2251      C2252   1.401       .  A
C2251      S2255   1.803       .  S
C2252      H2256   1.084       .  S
S2253      H2258   1.407       .  S
S2255      H2259   1.407       .  S
C2261      C2262   1.404       .  A
C2261      C2266   1.400       .  A
C2261      H2271   1.084       .  S
C2262      C2267   1.487       .  S
C2262      C2263   1.414       .  A
C2263      C2264   1.402       .  A
C2263      S2268   1.804       .  S
C2264      C2265   1.405       .  A
C2264      H2269   1.084       .  S
C2265      C2266   1.414       .  A
C2266      S2270   1.804       .  S
C2267      C2272   1.411       .  A
C2267      C2276   1.402       .  A
S2268      H2284   1.406       .  S
S2270      H2281   1.407   1_455  S
C2272      C2273   1.406       .  A
C2272      S2277   1.807       .  S
C2273      C2274   1.406       .  A
C2273      H2278   1.083       .  S
C2274      C2275   1.416       .  A
C2275      C2276   1.400       .  A
C2275      S2279   1.803       .  S
C2276      H2280   1.084       .  S
S2277      H2282   1.407       .  S
S2279      H2283   1.407       .  S
C2285      C2286   1.401       .  A
C2285      C2290   1.399       .  A
C2285      H2295   1.084       .  S
C2286      C2291   1.481       .  S
C2286      C2287   1.413       .  A
C2287      C2288   1.401       .  A
C2287      S2292   1.804       .  S
C2288      C2289   1.405       .  A
C2288      H2293   1.084       .  S
C2289      C2290   1.416       .  A
C2290      S2294   1.804       .  S
C2291      C2296   1.409       .  A
C2291      C2300   1.402       .  A
S2292      H2308   1.405       .  S
S2294      H2305   1.407       .  S
C2296      C2297   1.402       .  A
C2296      S2301   1.807       .  S
C2297      C2298   1.405       .  A
C2297      H2302   1.083       .  S
C2298      C2299   1.416       .  A
C2299      C2300   1.401       .  A
C2299      S2303   1.804   1_655  S
C2300      H2304   1.084       .  S
S2301      H2306   1.407       .  S
S2303      H2307   1.406       .  S
C2309      C2310   1.403       .  A
C2309      C2314   1.400       .  A
C2309      H2319   1.084       .  S
C2310      C2315   1.483       .  S
C2310      C2311   1.413       .  A
C2311      C2312   1.400       .  A
C2311      S2316   1.805       .  S
C2312      C2313   1.407       .  A
C2312      H2317   1.084       .  S
C2313      C2314   1.416       .  A
C2314      S2318   1.802       .  S
C2315      C2320   1.411       .  A
C2315      C2324   1.402       .  A
S2316      H2332   1.405       .  S
S2318      H2329   1.407       .  S
C2320      C2321   1.405       .  A
C2320      S2325   1.807       .  S
C2321      C2322   1.406       .  A
C2321      H2326   1.083       .  S
C2322      C2323   1.415       .  A
C2323      C2324   1.398       .  A
C2323      S2327   1.804       .  S
C2324      H2328   1.084       .  S
S2325      H2330   1.407       .  S
S2327      H2331   1.407   1_554  S
C2333      C2334   1.401       .  A
C2333      C2338   1.399       .  A
C2333      H2343   1.084       .  S
C2334      C2339   1.480       .  S
C2334      C2335   1.412       .  A
C2335      C2336   1.400       .  A
C2335      S2340   1.804       .  S
C2336      C2337   1.405       .  A
C2336      H2341   1.084       .  S
C2337      C2338   1.416       .  A
C2338      S2342   1.804       .  S
C2339      C2344   1.409       .  A
C2339      C2348   1.401       .  A
S2340      H2356   1.405       .  S
S2342      H2353   1.407       .  S
C2344      C2345   1.402       .  A
C2344      S2349   1.807       .  S
C2345      C2346   1.405       .  A
C2345      H2350   1.082       .  S
C2346      C2347   1.416       .  A
C2347      C2348   1.400       .  A
C2347      S2351   1.804       .  S
C2348      H2352   1.084       .  S
S2349      H2354   1.407       .  S
S2351      H2355   1.407       .  S
C2357      C2358   1.404       .  A
C2357      C2362   1.403       .  A
C2357      H2367   1.084       .  S
C2358      C2363   1.488       .  S
C2358      C2359   1.412       .  A
C2359      C2360   1.400       .  A
C2359      S2364   1.804       .  S
C2360      C2361   1.407       .  A
C2360      H2365   1.084       .  S
C2361      C2362   1.417       .  A
C2362      S2366   1.803   1_556  S
C2363      C2368   1.410       .  A
C2363      C2372   1.402       .  A
S2364      H2380   1.406       .  S
S2366      H2377   1.407       .  S
C2368      C2369   1.406       .  A
C2368      S2373   1.807       .  S
C2369      C2370   1.408       .  A
C2369      H2374   1.082       .  S
C2370      C2371   1.418       .  A
C2371      C2372   1.401       .  A
C2371      S2375   1.802       .  S
C2372      H2376   1.084       .  S
S2373      H2378   1.407       .  S
S2375      H2379   1.407       .  S
C2381      C2382   1.404       .  A
C2381      C2386   1.402       .  A
C2381      H2391   1.084       .  S
C2382      C2387   1.487       .  S
C2382      C2383   1.414       .  A
C2383      C2384   1.402       .  A
C2383      S2388   1.803       .  S
C2384      C2385   1.404       .  A
C2384      H2389   1.084       .  S
C2385      C2386   1.414       .  A
C2386      S2390   1.800       .  S
C2387      C2392   1.411       .  A
C2387      C2396   1.402       .  A
S2388      H2404   1.405       .  S
S2390      H2401   1.406       .  S
C2392      C2393   1.407       .  A
C2392      S2397   1.806       .  S
C2393      C2394   1.404       .  A
C2393      H2398   1.083       .  S
C2394      C2395   1.415       .  A
C2395      C2396   1.401       .  A
C2395      S2399   1.804       .  S
C2396      H2400   1.084       .  S
S2397      H2402   1.407       .  S
S2399      H2403   1.407       .  S
C2405      C2406   1.402   1_546  A
C2405      C2410   1.398       .  A
C2405      H2415   1.084       .  S
C2406      C2411   1.478       .  S
C2406      C2407   1.413       .  A
C2407      C2408   1.401       .  A
C2407      S2412   1.807       .  S
C2408      C2409   1.405       .  A
C2408      H2413   1.084       .  S
C2409      C2410   1.413   1_564  A
C2410      S2414   1.804       .  S
C2411      C2416   1.406   1_554  A
C2411      C2420   1.400   1_565  A
S2412      H2428   1.403       .  S
S2414      H2425   1.406       .  S
C2416      C2417   1.402       .  A
C2416      S2421   1.806       .  S
C2417      C2418   1.408   1_566  A
C2417      H2422   1.082       .  S
C2418      C2419   1.419       .  A
C2419      C2420   1.401       .  A
C2419      S2423   1.800       .  S
C2420      H2424   1.084       .  S
S2421      H2426   1.407       .  S
S2423      H2427   1.407   1_554  S
C2429      C2430   1.402   1_556  A
C2429      C2434   1.402       .  A
C2429      H2439   1.084       .  S
C2430      C2435   1.478       .  S
C2430      C2431   1.410   1_655  A
C2431      C2432   1.398       .  A
C2431      S2436   1.806       .  S
C2432      C2433   1.406   1_455  A
C2432      H2437   1.084       .  S
C2433      C2434   1.418   1_554  A
C2434      S2438   1.803       .  S
C2435      C2440   1.408       .  A
C2435      C2444   1.401   1_654  A
S2436      H2452   1.403       .  S
S2438      H2449   1.407   1_556  S
C2440      C2441   1.403       .  A
C2440      S2445   1.806       .  S
C2441      C2442   1.405   1_655  A
C2441      H2446   1.083       .  S
C2442      C2443   1.415   1_554  A
C2443      C2444   1.399       .  A
C2443      S2447   1.804       .  S
C2444      H2448   1.084       .  S
S2445      H2450   1.407       .  S
S2447      H2451   1.407       .  S
C2453      C2454   1.401   1_655  A
C2453      C2458   1.398       .  A
C2453      H2463   1.084       .  S
C2454      C2459   1.478   1_545  S
C2454      C2455   1.413   1_545  A
C2455      C2456   1.401       .  A
C2455      S2460   1.804       .  S
C2456      C2457   1.403   1_565  A
C2456      H2461   1.085       .  S
C2457      C2458   1.413   1_455  A
C2458      S2462   1.805       .  S
C2459      C2464   1.407   1_565  A
C2459      C2468   1.401   1_455  A
S2460      H2476   1.404       .  S
S2462      H2473   1.407       .  S
C2464      C2465   1.403       .  A
C2464      S2469   1.807       .  S
C2465      C2466   1.407   1_545  A
C2465      H2470   1.082       .  S
C2466      C2467   1.417   1_455  A
C2467      C2468   1.401       .  A
C2467      S2471   1.802       .  S
C2468      H2472   1.083       .  S
S2469      H2474   1.406       .  S
S2471      H2475   1.407   1_655  S
C2477      C2478   1.402   1_554  A
C2477      C2482   1.400       .  A
C2477      H2487   1.084       .  S
C2478      C2483   1.481       .  S
C2478      C2479   1.413       .  A
C2479      C2480   1.400       .  A
C2479      S2484   1.804   1_455  S
C2480      C2481   1.403       .  A
C2480      H2485   1.084   1_455  S
C2481      C2482   1.413   1_556  A
C2482      S2486   1.804       .  S
C2483      C2488   1.408       .  A
C2483      C2492   1.400   1_456  A
S2484      H2500   1.406   1_655  S
S2486      H2497   1.406       .  S
C2488      C2489   1.406       .  A
C2488      S2493   1.806       .  S
C2489      C2490   1.409       .  A
C2489      H2494   1.083       .  S
C2490      C2491   1.416   1_456  A
C2491      C2492   1.399       .  A
C2491      S2495   1.801       .  S
C2492      H2496   1.084       .  S
S2493      H2498   1.407       .  S
S2495      H2499   1.407   1_554  S
C2501      C2502   1.400   1_545  A
C2501      C2506   1.398       .  A
C2501      H2511   1.084       .  S
C2502      C2507   1.477       .  S
C2502      C2503   1.413   1_556  A
C2503      C2504   1.401       .  A
C2503      S2508   1.807       .  S
C2504      C2505   1.406       .  A
C2504      H2509   1.084       .  S
C2505      C2506   1.418   1_564  A
C2506      S2510   1.804       .  S
C2507      C2512   1.408       .  A
C2507      C2516   1.402   1_566  A
S2508      H2524   1.402       .  S
S2510      H2521   1.407   1_556  S
C2512      C2513   1.403       .  A
C2512      S2517   1.805       .  S
C2513      C2514   1.404       .  A
C2513      H2518   1.083       .  S
C2514      C2515   1.413   1_566  A
C2515      C2516   1.399       .  A
C2515      S2519   1.804       .  S
C2516      H2520   1.084       .  S
S2517      H2522   1.407       .  S
S2519      H2523   1.406       .  S
C2525      C2526   1.403   1_455  A
C2525      C2530   1.403       .  A
C2525      H2535   1.084       .  S
C2526      C2531   1.486       .  S
C2526      C2527   1.413       .  A
C2527      C2528   1.403       .  A
C2527      S2532   1.803   1_545  S
C2528      C2529   1.406       .  A
C2528      H2533   1.085   1_545  S
C2529      C2530   1.416   1_655  A
C2530      S2534   1.803       .  S
C2531      C2536   1.409       .  A
C2531      C2540   1.403   1_545  A
S2532      H2548   1.405   1_565  S
S2534      H2545   1.406       .  S
C2536      C2537   1.405       .  A
C2536      S2541   1.806       .  S
C2537      C2538   1.406       .  A
C2537      H2542   1.082       .  S
C2538      C2539   1.418   1_545  A
C2539      C2540   1.404       .  A
C2539      S2543   1.803       .  S
C2540      H2544   1.084       .  S
S2541      H2546   1.407       .  S
S2543      H2547   1.407       .  S
C2549      C2550   1.402   1_455  A
C2549      C2554   1.399       .  A
C2549      H2559   1.084       .  S
C2550      C2555   1.480       .  S
C2550      C2551   1.413       .  A
C2551      C2552   1.400       .  A
C2551      S2556   1.806       .  S
C2552      C2553   1.405   1_655  A
C2552      H2557   1.084       .  S
C2553      C2554   1.415       .  A
C2554      S2558   1.804       .  S
C2555      C2560   1.409       .  A
C2555      C2564   1.401   1_655  A
S2556      H2572   1.405       .  S
S2558      H2569   1.406       .  S
C2560      C2561   1.404       .  A
C2560      S2565   1.806       .  S
C2561      C2562   1.406       .  A
C2561      H2566   1.082       .  S
C2562      C2563   1.416   1_655  A
C2563      C2564   1.398       .  A
C2563      S2567   1.804       .  S
C2564      H2568   1.084       .  S
S2565      H2570   1.407       .  S
S2567      H2571   1.407   1_455  S
C2573      C2574   1.404       .  A
C2573      C2578   1.400       .  A
C2573      H2583   1.084       .  S
C2574      C2579   1.485       .  S
C2574      C2575   1.413       .  A
C2575      C2576   1.401       .  A
C2575      S2580   1.804       .  S
C2576      C2577   1.404       .  A
C2576      H2581   1.084       .  S
C2577      C2578   1.414       .  A
C2578      S2582   1.804       .  S
C2579      C2584   1.410       .  A
C2579      C2588   1.402       .  A
S2580      H2596   1.406       .  S
S2582      H2593   1.406       .  S
C2584      C2585   1.403       .  A
C2584      S2589   1.807       .  S
C2585      C2586   1.406       .  A
C2585      H2590   1.082       .  S
C2586      C2587   1.418       .  A
C2587      C2588   1.402       .  A
C2587      S2591   1.803       .  S
C2588      H2592   1.084       .  S
S2589      H2594   1.407       .  S
S2591      H2595   1.407       .  S
C2597      C2598   1.402       .  A
C2597      C2602   1.402       .  A
C2597      H2607   1.084       .  S
C2598      C2603   1.482       .  S
C2598      C2599   1.411   1_455  A
C2599      C2600   1.399       .  A
C2599      S2604   1.804       .  S
C2600      C2601   1.406   1_655  A
C2600      H2605   1.084       .  S
C2601      C2602   1.417       .  A
C2602      S2606   1.803       .  S
C2603      C2608   1.408       .  A
C2603      C2612   1.402       .  A
S2604      H2620   1.405       .  S
S2606      H2617   1.407       .  S
C2608      C2609   1.402       .  A
C2608      S2613   1.807       .  S
C2609      C2610   1.407       .  A
C2609      H2614   1.083   1_455  S
C2610      C2611   1.417       .  A
C2611      C2612   1.402       .  A
C2611      S2615   1.803       .  S
C2612      H2616   1.084       .  S
S2613      H2618   1.407       .  S
S2615      H2619   1.406       .  S
C2621      C2622   1.402       .  A
C2621      C2626   1.400       .  A
C2621      H2631   1.084       .  S
C2622      C2627   1.479       .  S
C2622      C2623   1.411       .  A
C2623      C2624   1.398       .  A
C2623      S2628   1.805       .  S
C2624      C2625   1.406       .  A
C2624      H2629   1.084       .  S
C2625      C2626   1.416       .  A
C2626      S2630   1.803       .  S
C2627      C2632   1.409       .  A
C2627      C2636   1.401       .  A
S2628      H2644   1.405       .  S
S2630      H2641   1.407       .  S
C2632      C2633   1.402       .  A
C2632      S2637   1.807       .  S
C2633      C2634   1.405       .  A
C2633      H2638   1.083       .  S
C2634      C2635   1.415       .  A
C2635      C2636   1.399       .  A
C2635      S2639   1.804       .  S
C2636      H2640   1.084       .  S
S2637      H2642   1.407       .  S
S2639      H2643   1.406       .  S
C2645      C2646   1.404       .  A
C2645      C2650   1.404       .  A
C2645      H2655   1.083       .  S
C2646      C2651   1.481   1_655  S
C2646      C2647   1.412   1_655  A
C2647      C2648   1.398       .  A
C2647      S2652   1.804       .  S
C2648      C2649   1.403   1_455  A
C2648      H2653   1.084       .  S
C2649      C2650   1.412       .  A
C2650      S2654   1.806       .  S
C2651      C2656   1.409   1_455  A
C2651      C2660   1.402       .  A
S2652      H2668   1.406   1_455  S
S2654      H2665   1.407       .  S
C2656      C2657   1.403       .  A
C2656      S2661   1.807       .  S
C2657      C2658   1.405   1_655  A
C2657      H2662   1.082       .  S
C2658      C2659   1.415       .  A
C2659      C2660   1.400       .  A
C2659      S2663   1.799       .  S
C2660      H2664   1.083       .  S
S2661      H2666   1.407       .  S
S2663      H2667   1.407       .  S
C2669      C2670   1.402   1_455  A
C2669      C2674   1.401       .  A
C2669      H2679   1.084       .  S
C2670      C2675   1.489       .  S
C2670      C2671   1.413       .  A
C2671      C2672   1.402       .  A
C2671      S2676   1.804       .  S
C2672      C2673   1.409       .  A
C2672      H2677   1.083       .  S
C2673      C2674   1.421   1_655  A
C2674      S2678   1.800       .  S
C2675      C2680   1.412   1_655  A
C2675      C2684   1.404       .  A
S2676      H2692   1.406       .  S
S2678      H2689   1.408       .  S
C2680      C2681   1.403       .  A
C2680      S2685   1.807       .  S
C2681      C2682   1.405   1_455  A
C2681      H2686   1.082       .  S
C2682      C2683   1.417       .  A
C2683      C2684   1.402       .  A
C2683      S2687   1.804       .  S
C2684      H2688   1.084       .  S
S2685      H2690   1.407       .  S
S2687      H2691   1.407       .  S
C2693      C2694   1.402       .  A
C2693      C2698   1.401       .  A
C2693      H2703   1.084       .  S
C2694      C2699   1.480       .  S
C2694      C2695   1.412       .  A
C2695      C2696   1.400       .  A
C2695      S2700   1.805       .  S
C2696      C2697   1.404       .  A
C2696      H2701   1.084       .  S
C2697      C2698   1.415       .  A
C2698      S2702   1.804       .  S
C2699      C2704   1.409       .  A
C2699      C2708   1.400       .  A
S2700      H2716   1.404       .  S
S2702      H2713   1.407       .  S
C2704      C2705   1.405       .  A
C2704      S2709   1.806       .  S
C2705      C2706   1.406       .  A
C2705      H2710   1.083       .  S
C2706      C2707   1.416       .  A
C2707      C2708   1.399       .  A
C2707      S2711   1.804       .  S
C2708      H2712   1.084       .  S
S2709      H2714   1.407       .  S
S2711      H2715   1.406       .  S
C2717      C2718   1.404       .  A
C2717      C2722   1.399       .  A
C2717      H2727   1.084       .  S
C2718      C2723   1.482       .  S
C2718      C2719   1.413   1_565  A
C2719      C2720   1.398       .  A
C2719      S2724   1.804       .  S
C2720      C2721   1.403   1_545  A
C2720      H2725   1.084       .  S
C2721      C2722   1.414       .  A
C2722      S2726   1.804       .  S
C2723      C2728   1.410       .  A
C2723      C2732   1.402   1_565  A
S2724      H2740   1.406       .  S
S2726      H2737   1.406       .  S
C2728      C2729   1.403       .  A
C2728      S2733   1.807       .  S
C2729      C2730   1.406       .  A
C2729      H2734   1.083       .  S
C2730      C2731   1.416   1_565  A
C2731      C2732   1.399       .  A
C2731      S2735   1.803       .  S
C2732      H2736   1.084       .  S
S2733      H2738   1.407       .  S
S2735      H2739   1.407   1_545  S
C2741      C2742   1.402   1_565  A
C2741      C2746   1.401       .  A
C2741      H2751   1.084       .  S
C2742      C2747   1.483       .  S
C2742      C2743   1.412       .  A
C2743      C2744   1.402       .  A
C2743      S2748   1.805       .  S
C2744      C2745   1.407       .  A
C2744      H2749   1.084       .  S
C2745      C2746   1.417   1_545  A
C2746      S2750   1.803       .  S
C2747      C2752   1.409       .  A
C2747      C2756   1.401   1_545  A
S2748      H2764   1.405   1_545  S
S2750      H2761   1.407   1_565  S
C2752      C2753   1.405       .  A
C2752      S2757   1.806       .  S
C2753      C2754   1.406       .  A
C2753      H2758   1.082       .  S
C2754      C2755   1.417   1_545  A
C2755      C2756   1.400       .  A
C2755      S2759   1.804       .  S
C2756      H2760   1.084       .  S
S2757      H2762   1.407       .  S
S2759      H2763   1.407       .  S
C2765      C2766   1.402       .  A
C2765      C2770   1.400       .  A
C2765      H2775   1.084       .  S
C2766      C2771   1.481       .  S
C2766      C2767   1.413       .  A
C2767      C2768   1.399       .  A
C2767      S2772   1.804       .  S
C2768      C2769   1.404       .  A
C2768      H2773   1.084       .  S
C2769      C2770   1.416       .  A
C2770      S2774   1.804       .  S
C2771      C2776   1.408       .  A
C2771      C2780   1.400       .  A
S2772      H2788   1.405       .  S
S2774      H2785   1.406       .  S
C2776      C2777   1.404       .  A
C2776      S2781   1.807       .  S
C2777      C2778   1.408       .  A
C2777      H2782   1.082       .  S
C2778      C2779   1.418       .  A
C2779      C2780   1.399       .  A
C2779      S2783   1.799       .  S
C2780      H2784   1.084       .  S
S2781      H2786   1.407       .  S
S2783      H2787   1.407       .  S
C2789      C2790   1.402       .  A
C2789      C2794   1.401       .  A
C2789      H2799   1.084       .  S
C2790      C2795   1.483       .  S
C2790      C2791   1.411   1_545  A
C2791      C2792   1.400       .  A
C2791      S2796   1.804       .  S
C2792      C2793   1.408       .  A
C2792      H2797   1.084       .  S
C2793      C2794   1.418   1_565  A
C2794      S2798   1.799       .  S
C2795      C2800   1.409       .  A
C2795      C2804   1.401   1_545  A
S2796      H2812   1.405   1_565  S
S2798      H2809   1.408       .  S
C2800      C2801   1.405       .  A
C2800      S2805   1.806       .  S
C2801      C2802   1.406   1_545  A
C2801      H2806   1.083       .  S
C2802      C2803   1.416       .  A
C2803      C2804   1.400       .  A
C2803      S2807   1.803       .  S
C2804      H2808   1.084       .  S
S2805      H2810   1.407       .  S
S2807      H2811   1.407       .  S
C2813      C2814   1.401   1_545  A
C2813      C2818   1.398       .  A
C2813      H2823   1.084       .  S
C2814      C2819   1.481       .  S
C2814      C2815   1.413       .  A
C2815      C2816   1.404       .  A
C2815      S2820   1.805       .  S
C2816      C2817   1.406       .  A
C2816      H2821   1.084       .  S
C2817      C2818   1.413   1_565  A
C2818      S2822   1.795       .  S
C2819      C2824   1.408       .  A
C2819      C2828   1.402       .  A
S2820      H2836   1.404       .  S
S2822      H2833   1.407       .  S
C2824      C2825   1.403       .  A
C2824      S2829   1.806       .  S
C2825      C2826   1.406       .  A
C2825      H2830   1.083       .  S
C2826      C2827   1.417       .  A
C2827      C2828   1.402       .  A
C2827      S2831   1.803       .  S
C2828      H2832   1.084       .  S
S2829      H2834   1.407       .  S
S2831      H2835   1.406       .  S
C2837      C2838   1.401   1_554  A
C2837      C2842   1.401       .  A
C2837      H2847   1.084       .  S
C2838      C2843   1.483       .  S
C2838      C2839   1.412       .  A
C2839      C2840   1.402       .  A
C2839      S2844   1.805       .  S
C2840      C2841   1.406       .  A
C2840      H2845   1.084       .  S
C2841      C2842   1.417   1_556  A
C2842      S2846   1.803       .  S
C2843      C2848   1.410       .  A
C2843      C2852   1.403   1_556  A
S2844      H2860   1.406       .  S
S2846      H2857   1.407       .  S
C2848      C2849   1.402       .  A
C2848      S2853   1.807       .  S
C2849      C2850   1.404       .  A
C2849      H2854   1.083       .  S
C2850      C2851   1.415   1_556  A
C2851      C2852   1.401       .  A
C2851      S2855   1.804       .  S
C2852      H2856   1.084       .  S
S2853      H2858   1.407       .  S
S2855      H2859   1.406       .  S
C2861      C2862   1.401   1_556  A
C2861      C2866   1.400       .  A
C2861      H2871   1.084       .  S
C2862      C2867   1.484       .  S
C2862      C2863   1.413       .  A
C2863      C2864   1.401       .  A
C2863      S2868   1.804       .  S
C2864      C2865   1.406   1_554  A
C2864      H2869   1.084       .  S
C2865      C2866   1.417       .  A
C2866      S2870   1.799       .  S
C2867      C2872   1.411   1_554  A
C2867      C2876   1.402       .  A
S2868      H2884   1.406       .  S
S2870      H2881   1.407       .  S
C2872      C2873   1.406       .  A
C2872      S2877   1.807       .  S
C2873      C2874   1.405   1_556  A
C2873      H2878   1.083       .  S
C2874      C2875   1.415       .  A
C2875      C2876   1.398       .  A
C2875      S2879   1.804       .  S
C2876      H2880   1.084       .  S
S2877      H2882   1.407       .  S
S2879      H2883   1.407       .  S
C2885      C2886   1.403       .  A
C2885      C2890   1.401       .  A
C2885      H2895   1.084       .  S
C2886      C2891   1.480       .  S
C2886      C2887   1.412       .  A
C2887      C2888   1.397       .  A
C2887      S2892   1.804       .  S
C2888      C2889   1.403       .  A
C2888      H2893   1.084       .  S
C2889      C2890   1.415       .  A
C2890      S2894   1.804       .  S
C2891      C2896   1.409       .  A
C2891      C2900   1.399       .  A
S2892      H2908   1.406       .  S
S2894      H2905   1.407       .  S
C2896      C2897   1.404       .  A
C2896      S2901   1.807       .  S
C2897      C2898   1.407       .  A
C2897      H2902   1.082       .  S
C2898      C2899   1.418       .  A
C2899      C2900   1.398       .  A
C2899      S2903   1.799       .  S
C2900      H2904   1.083       .  S
S2901      H2906   1.407       .  S
S2903      H2907   1.407       .  S
C2909      C2910   1.403       .  A
C2909      C2914   1.399       .  A
C2909      H2919   1.084       .  S
C2910      C2915   1.482       .  S
C2910      C2911   1.414       .  A
C2911      C2912   1.401       .  A
C2911      S2916   1.805       .  S
C2912      C2913   1.403       .  A
C2912      H2917   1.084       .  S
C2913      C2914   1.412       .  A
C2914      S2918   1.804       .  S
C2915      C2920   1.410       .  A
C2915      C2924   1.402       .  A
S2916      H2932   1.405       .  S
S2918      H2929   1.406       .  S
C2920      C2921   1.404       .  A
C2920      S2925   1.807       .  S
C2921      C2922   1.406       .  A
C2921      H2926   1.082       .  S
C2922      C2923   1.414       .  A
C2923      C2924   1.399       .  A
C2923      S2927   1.803       .  S
C2924      H2928   1.083       .  S
S2925      H2930   1.407       .  S
S2927      H2931   1.407       .  S
C2933      C2934   1.401       .  A
C2933      C2938   1.400       .  A
C2933      H2943   1.084       .  S
C2934      C2939   1.482       .  S
C2934      C2935   1.413       .  A
C2935      C2936   1.403       .  A
C2935      S2940   1.805       .  S
C2936      C2937   1.406       .  A
C2936      H2941   1.084       .  S
C2937      C2938   1.415       .  A
C2938      S2942   1.803   1_556  S
C2939      C2944   1.409   1_556  A
C2939      C2948   1.401       .  A
S2940      H2956   1.405       .  S
S2942      H2953   1.407       .  S
C2944      C2945   1.405       .  A
C2944      S2949   1.806       .  S
C2945      C2946   1.405   1_554  A
C2945      H2950   1.082       .  S
C2946      C2947   1.416       .  A
C2947      C2948   1.400       .  A
C2947      S2951   1.804       .  S
C2948      H2952   1.083       .  S
S2949      H2954   1.407       .  S
S2951      H2955   1.407       .  S
C2957      C2958   1.403   1_554  A
C2957      C2962   1.401       .  A
C2957      H2967   1.084       .  S
C2958      C2963   1.484       .  S
C2958      C2959   1.413       .  A
C2959      C2960   1.400       .  A
C2959      S2964   1.805       .  S
C2960      C2961   1.406   1_556  A
C2960      H2965   1.084       .  S
C2961      C2962   1.416       .  A
C2962      S2966   1.803       .  S
C2963      C2968   1.411       .  A
C2963      C2972   1.402   1_556  A
S2964      H2980   1.405       .  S
S2966      H2977   1.407       .  S
C2968      C2969   1.405       .  A
C2968      S2973   1.806       .  S
C2969      C2970   1.405       .  A
C2969      H2974   1.083       .  S
C2970      C2971   1.415   1_556  A
C2971      C2972   1.400       .  A
C2971      S2975   1.804       .  S
C2972      H2976   1.084       .  S
S2973      H2978   1.407       .  S
S2975      H2979   1.406       .  S
