geometry optimzed in LAMMPS
_audit_creation_date              2020-11-30 
_audit_creation_method            'lammps2cif' 
_symmetry_space_group_name_H-M    'P1' 
_symmetry_Int_Tables_number       1 
_symmetry_cell_setting            triclinic 
loop_ 
_symmetry_equiv_pos_as_xyz 
  x,y,z 
_cell_length_a                    33.76051634 
_cell_length_b                    34.3378161578588 
_cell_length_c                    62.63464410044767 
_cell_angle_alpha                 89.59075765838158 
_cell_angle_beta                  90.2045106736313 
_cell_angle_gamma                 89.93265752723782 
loop_ 
_atom_site_label 
_atom_site_type_symbol 
_atom_site_fract_x 
_atom_site_fract_y 
_atom_site_fract_z 
_atom_site_charge 
N1          N  0.37726545  0.25267425  0.34085117    -0.34600
N2          N  0.37192572  0.31160672  0.37400779    -0.55200
N3          N  0.36958595  0.25157447  0.40665305    -0.34600
N4          N  0.37711008  0.19243112  0.37409211    -0.55200
C5          C  0.38801871  0.28495636  0.32968333     0.29000
C6          C  0.38902976  0.22118167  0.32958001     0.29000
C7          C  0.37431162  0.28340599  0.41899347     0.28900
C8          C  0.37737930  0.22002814  0.41900511     0.28900
C9          C  0.36866978  0.33467961  0.35651953     0.37600
C10         C  0.36255102  0.33391482  0.39096645     0.37600
C11         C  0.37447633  0.16958363  0.35668853     0.37600
C12         C  0.37066004  0.16902949  0.39117326     0.37600
C13         C  0.40596426  0.27375501  0.31079097    -0.19900
C14         C  0.40649936  0.23356022  0.31069828    -0.19900
C15         C  0.38504052  0.27193667  0.43949247    -0.19900
C16         C  0.38694407  0.23188081  0.43950371    -0.19900
C17         C  0.35699225  0.37180872  0.36237288    -0.21000
C18         C  0.35290741  0.37127935  0.38417103    -0.21000
C19         C  0.36667268  0.13140931  0.36275692    -0.21000
C20         C  0.36421940  0.13107069  0.38459502    -0.21000
C21         C  0.38100253  0.32410787  0.33584812    -0.16300
C22         C  0.38358145  0.18168250  0.33571589    -0.16300
C23         C  0.37300754  0.18092935  0.41266785    -0.16300
C24         C  0.36658030  0.32218766  0.41255155    -0.16300
H25         H  0.41753175  0.29256646  0.29835909     0.16600
H26         H  0.41867764  0.21552590  0.29822179     0.16600
H27         H  0.39039686  0.29046982  0.45310279     0.16600
H28         H  0.39403916  0.21353871  0.45311841     0.16600
H29         H  0.35293958  0.39694661  0.35206718     0.14900
H30         H  0.34510925  0.39597616  0.39394406     0.14900
H31         H  0.36394607  0.10623478  0.35255147     0.14900
H32         H  0.35910839  0.10561829  0.39449530     0.14900
H33         H  0.35993641  0.25202878  0.35452852     0.28100
H34         H  0.35685693  0.25115254  0.39154372     0.28100
N35         N  0.13463359  0.31357843  0.37540656    -0.34600
N36         N  0.13746025  0.25411332  0.40864819    -0.55200
N37         N  0.13384803  0.19447602  0.37554407    -0.34600
N38         N  0.12723068  0.25393726  0.34254396    -0.55200
C39         C  0.13154530  0.33594208  0.39303954     0.29000
C40         C  0.12574578  0.33634291  0.35836378     0.29000
C41         C  0.12946192  0.17264746  0.39343249     0.28900
C42         C  0.12315717  0.17210814  0.35880837     0.28900
C43         C  0.14812739  0.28542096  0.42026243     0.37600
C44         C  0.14821347  0.22250248  0.42022992     0.37600
C45         C  0.12838628  0.28576003  0.32965685     0.37600
C46         C  0.12781374  0.22223130  0.32978608     0.37600
C47         C  0.12085883  0.37350103  0.38713659    -0.19900
C48         C  0.11723056  0.37379835  0.36530632    -0.19900
C49         C  0.11595207  0.13587718  0.38804662    -0.19900
C50         C  0.11193591  0.13551473  0.36621476    -0.19900
C51         C  0.16501713  0.27368470  0.43945302    -0.21000
C52         C  0.16514182  0.23373656  0.43941772    -0.21000
C53         C  0.12894857  0.27416341  0.30848843    -0.21000
C54         C  0.12861128  0.23400000  0.30857117    -0.21000
C55         C  0.14170212  0.32440575  0.41404132    -0.16300
C56         C  0.12668877  0.32502544  0.33666847    -0.16300
C57         C  0.12502572  0.18301431  0.33700538    -0.16300
C58         C  0.14120121  0.18371468  0.41415533    -0.16300
H59         H  0.11683702  0.39835040  0.39744600     0.16600
H60         H  0.10958916  0.39900064  0.35566414     0.16600
H61         H  0.11028350  0.11159209  0.39871468     0.16600
H62         H  0.10227256  0.11087121  0.35686962     0.16600
H63         H  0.17630648  0.29198374  0.45208345     0.14900
H64         H  0.17641432  0.21510486  0.45206161     0.14900
H65         H  0.12907376  0.29270245  0.29444091     0.14900
H66         H  0.12834953  0.21560096  0.29461066     0.14900
H67         H  0.14669353  0.28577507  0.37481449     0.28100
H68         H  0.14827232  0.22116525  0.37465357     0.28100
C69         C  0.17706184  0.41351035  0.45140557     0.44400
N70         N  0.18873131  0.46109076  0.47225481     0.03300
C71         C  0.35803653  0.07526726  0.47272460    -0.04600
H72         H  0.38245454  0.42105100  0.48159289     0.08800
C73         C  0.30367747  0.42884489  0.55055454    -0.04900
Co74       Co  0.26231644  0.00338637  0.45904910     0.74200
N75         N  0.33278518  0.45965603  0.47554065    -0.24100
Co76       Co  0.33252335  0.00199575  0.49962437     0.74100
C77         C  0.33934178  0.40928534  0.54365717     0.44500
N78         N  0.21221955  0.45982580  0.53519337     0.02900
N79         N  0.32925926  0.45860961  0.52331773     0.03000
N80         N  0.31124952  0.07417895  0.44672979    -0.44900
H81         H  0.23170843  0.42640159  0.43091556     0.08800
N82         N  0.30567044  0.46056179  0.46027995     0.03300
N83         N  0.32965969  0.04460029  0.52358229     0.03100
C84         C  0.33966442  0.09330369  0.54409774     0.44700
N85         N  0.18504130  0.46012663  0.51997940    -0.23500
C86         C  0.21470916  0.07593113  0.44496939    -0.04500
N87         N  0.16313324  0.43253045  0.46862700    -0.44600
N88         N  0.35438511  0.07403817  0.52708263    -0.44900
C89         C  0.17928430  0.09560633  0.45212309     0.44400
N90         N  0.30635557  0.04537474  0.46057424     0.03300
N91         N  0.18595198  0.04559721  0.52013173    -0.23600
N92         N  0.21804199  0.46160520  0.45833357    -0.24100
N93         N  0.21294650  0.04459992  0.53543423     0.03000
H94         H  0.13616993  0.08401864  0.51405592     0.08800
H95         H  0.28526488  0.07928393  0.56449440     0.08500
N96         N  0.33325431  0.04517862  0.47593207    -0.24100
N97         N  0.29964485  0.45887473  0.53703654    -0.23700
N98         N  0.18967637  0.04653755  0.47248829     0.03300
C99         C  0.34149205  0.41136777  0.45255700     0.44700
C100        C  0.15985381  0.43042877  0.52356689    -0.05000
N101        N  0.30026268  0.04372524  0.53742801    -0.23700
H102        H  0.28463487  0.42229539  0.56395045     0.08900
N103        N  0.30990934  0.43233523  0.44622272    -0.44900
H104        H  0.13406563  0.42342816  0.51405282     0.08900
C105        C  0.17707121  0.09377133  0.54309459     0.44600
C106        C  0.21297783  0.43266212  0.44443894    -0.04500
Co107      Co  0.18615394  0.00331960  0.49615916     0.73800
N108        N  0.20723990  0.43137701  0.54924168    -0.44700
C109        C  0.34294840  0.09433239  0.45346559     0.44800
N110        N  0.16473018  0.07584313  0.46906465    -0.44600
Co111      Co  0.25629066  0.00170556  0.53661748     0.73900
C112        C  0.30435062  0.07317346  0.55109727    -0.05000
C113        C  0.35711143  0.42927904  0.47195626    -0.04500
N114        N  0.21900596  0.04609720  0.45859468    -0.24100
N115        N  0.35424996  0.42930291  0.52684829    -0.44800
H116        H  0.38351314  0.08241207  0.48244256     0.08800
C117        C  0.16158611  0.07592352  0.52367155    -0.04900
Cl118      Cl  0.25931907  0.00255854  0.49785408    -0.48000
C119        C  0.17510422  0.41151887  0.54290758     0.44600
H120        H  0.23346860  0.08230118  0.43142725     0.08800
N121        N  0.20855970  0.07275084  0.54952314    -0.44700
N122        N  0.37916215  0.19190241  0.62207640    -0.34600
N123        N  0.38012015  0.25147660  0.65544462    -0.55200
N124        N  0.37986204  0.31101859  0.62227055    -0.34600
N125        N  0.37538049  0.25149443  0.58928674    -0.55200
C126        C  0.37291232  0.17000359  0.63978782     0.29000
C127        C  0.36898252  0.17004094  0.60498266     0.29000
C128        C  0.37529234  0.33330379  0.63985287     0.28900
C129        C  0.37053099  0.33333571  0.60506209     0.28900
C130        C  0.38819899  0.21963781  0.66750806     0.37600
C131        C  0.38888559  0.28272038  0.66761520     0.37600
C132        C  0.37876216  0.22010078  0.57651733     0.37600
C133        C  0.37892086  0.28325550  0.57659914     0.37600
C134        C  0.35893517  0.13364374  0.63392219    -0.19900
C135        C  0.35626002  0.13371241  0.61198771    -0.19900
C136        C  0.36331236  0.37039052  0.63375781    -0.19900
C137        C  0.36005130  0.37036300  0.61185249    -0.19900
C138        C  0.40107340  0.23070337  0.68762449    -0.21000
C139        C  0.40148802  0.27069007  0.68769257    -0.21000
C140        C  0.38449979  0.23195220  0.55555819    -0.21000
C141        C  0.38456031  0.27198544  0.55560450    -0.21000
C142        C  0.38276137  0.18077338  0.66089458    -0.16300
C143        C  0.37278624  0.18122574  0.58324980    -0.16300
C144        C  0.37351279  0.32204943  0.58337801    -0.16300
C145        C  0.38450944  0.32192287  0.66104844    -0.16300
H146        H  0.35174692  0.10944525  0.64437396     0.16600
H147        H  0.34653827  0.10952210  0.60230947     0.16600
H148        H  0.35782850  0.39503659  0.64401918     0.16600
H149        H  0.35161997  0.39510373  0.60203722     0.16600
H150        H  0.40932175  0.21194196  0.70087392     0.14900
H151        H  0.41016995  0.28880671  0.70097939     0.14900
H152        H  0.38733752  0.21369257  0.54163077     0.14900
H153        H  0.38752258  0.29065754  0.54170759     0.14900
H154        H  0.39412911  0.21829760  0.62166544     0.28100
H155        H  0.39310340  0.28377498  0.62189292     0.28100
N156        N  0.13175451  0.31138536  0.62107203    -0.34600
N157        N  0.14300716  0.25212328  0.58869696    -0.55200
N158        N  0.13410904  0.19244585  0.62131615    -0.34600
N159        N  0.12540952  0.25163767  0.65405392    -0.55200
C160        C  0.14483294  0.33350307  0.60456520     0.29000
C161        C  0.13434340  0.33321741  0.63894378     0.29000
C162        C  0.14688980  0.17057804  0.60480172     0.28900
C163        C  0.13721650  0.17040458  0.63925025     0.28900
C164        C  0.14109186  0.28377007  0.57579985     0.37600
C165        C  0.14173441  0.22065097  0.57588910     0.37600
C166        C  0.11394999  0.28291401  0.66547126     0.37600
C167        C  0.11536563  0.21983288  0.66564676     0.37600
C168        C  0.15576675  0.36990713  0.61206813    -0.19900
C169        C  0.14901745  0.36975561  0.63373445    -0.19900
C170        C  0.15823549  0.13412223  0.61236931    -0.19900
C171        C  0.15207645  0.13400686  0.63408395    -0.19900
C172        C  0.13891282  0.27237620  0.55463134    -0.21000
C173        C  0.13928595  0.23235242  0.55468897    -0.21000
C174        C  0.09708278  0.27096761  0.68457515    -0.21000
C175        C  0.09800815  0.23095327  0.68469394    -0.21000
C176        C  0.14474627  0.32259711  0.58278854    -0.16300
C177        C  0.12092861  0.32198052  0.65944785    -0.16300
C178        C  0.12353100  0.18105660  0.65971497    -0.16300
C179        C  0.14622391  0.18177023  0.58298435    -0.16300
H180        H  0.16692366  0.39429257  0.60285293     0.16600
H181        H  0.15393437  0.39395120  0.64440159     0.16600
H182        H  0.16919109  0.10984578  0.60316731     0.16600
H183        H  0.15727017  0.10964151  0.64479621     0.16600
H184        H  0.13796017  0.29094634  0.54060125     0.14900
H185        H  0.13868511  0.21400076  0.54071252     0.14900
H186        H  0.08565651  0.28916179  0.69718563     0.14900
H187        H  0.08738567  0.21222250  0.69740642     0.14900
H188        H  0.11730156  0.28482692  0.61982976     0.28100
H189        H  0.11934980  0.21889432  0.62006488     0.28100
C190        C  0.42359706  0.09568750  0.29723159     0.44400
N191        N  0.46216010  0.07499638  0.27291634     0.03300
C192        C  0.45416729  0.40904008  0.21145893    -0.04600
H193        H  0.48002192  0.37420957  0.28791448     0.08800
C194        C  0.10766442  0.45125916  0.28954176    -0.04900
Co195      Co  0.43526805  0.50127007  0.25283347     0.74200
N196        N  0.46849662  0.43022922  0.27352683    -0.24100
Co197      Co  0.01084037  0.43331270  0.24964067     0.74100
C198        C  0.09399080  0.41288547  0.29698763     0.44500
N199        N  0.07709807  0.05265269  0.27441406     0.02900
N200        N  0.05458557  0.43390018  0.27280062     0.03000
N201        N  0.40555635  0.45358313  0.21595494    -0.44900
H202        H  0.38320860  0.04181221  0.29440959     0.08800
N203        N  0.43974944  0.45602539  0.27565429     0.03300
N204        N  0.05577855  0.43742512  0.22652689     0.03100
C205        C  0.09960416  0.42505503  0.20272896     0.44700
N206        N  0.04810329  0.07831322  0.27239660    -0.23500
C207        C  0.40201974  0.04899098  0.21557685    -0.04500
N208        N  0.45552973  0.10477740  0.28561535    -0.44600
N209        N  0.06567800  0.41167928  0.21168841    -0.44900
C210        C  0.41217292  0.08414699  0.20415582     0.44400
N211        N  0.43522380  0.45916701  0.22938437     0.03300
N212        N  0.04967810  0.07530579  0.22608767    -0.23600
N213        N  0.43644205  0.04631684  0.27539822    -0.24100
N214        N  0.07905761  0.05007458  0.22819114     0.03000
H215        H  0.04283566  0.12654034  0.20599376     0.08800
H216        H  0.13752806  0.47729722  0.21237304     0.08900
N217        N  0.46441386  0.43388308  0.22711957    -0.24100
N218        N  0.08083577  0.46224752  0.27462122    -0.23700
N219        N  0.45820364  0.07166323  0.22681255     0.03300
C220        C  0.42659049  0.41040571  0.29825705     0.44700
C221        C  0.05354543  0.10720534  0.28618737    -0.05000
N222        N  0.08232414  0.46547061  0.22825406    -0.23700
H223        H  0.13492856  0.46635421  0.29320249     0.08900
N224        N  0.41308979  0.44461739  0.29000728    -0.44900
H225        H  0.03583474  0.13340574  0.28712786     0.08900
C226        C  0.09805695  0.08724769  0.20279623     0.44600
C227        C  0.41022722  0.05707445  0.29043810    -0.04500
Co228      Co  0.00454690  0.07562624  0.24916922     0.73800
N229        N  0.10389292  0.06377555  0.28878872    -0.44700
C230        C  0.41526036  0.42279349  0.20402032     0.44800
N231        N  0.44702011  0.09750701  0.21204024    -0.44600
Co232      Co  0.08051559  0.50761927  0.25176448     0.73900
C233        C  0.11072182  0.46025283  0.21376542    -0.05000
C234        C  0.46289303  0.40084115  0.28727335    -0.04500
N235        N  0.43180350  0.04364047  0.22931373    -0.24100
N236        N  0.06131013  0.40429320  0.28584592    -0.44800
H237        H  0.47039077  0.38319436  0.20699182     0.08800
C238        C  0.05928334  0.10061871  0.21036115    -0.04900
Cl239      Cl  0.00780485  0.50446073  0.25088781    -0.48000
C240        C  0.09000917  0.09759874  0.29704343     0.44600
H241        H  0.37520491  0.03183576  0.21482838     0.08800
N242        N  0.10825267  0.05616140  0.21462278    -0.44700
C243        C  0.41184670  0.33044320  0.95450125     0.44400
N244        N  0.46161214  0.31747307  0.97460511     0.03300
C245        C  0.07557488  0.14922563  0.97138512    -0.04600
H246        H  0.42345984  0.12524723  0.98211969     0.08800
C247        C  0.43454076  0.19887379  0.05247055    -0.04900
Co248      Co  0.00346417  0.24544843  0.96004843     0.74200
N249        N  0.46019076  0.17578319  0.97644125    -0.24100
Co250      Co  0.00435924  0.17448289  0.99977240     0.74100
C251        C  0.41512287  0.16362970  0.04545296     0.44500
N252        N  0.46384390  0.29090428  0.03726942     0.02900
N253        N  0.46209046  0.17645271  0.02392930     0.03000
N254        N  0.07342874  0.19627387  0.94581930    -0.44900
H255        H  0.42347219  0.27757583  0.93320900     0.08800
N256        N  0.45990495  0.20291672  0.96139343     0.03300
N257        N  0.04857626  0.17506483  0.02327069     0.03100
C258        C  0.09624116  0.16059617  0.04442634     0.44700
N259        N  0.46346691  0.31833437  0.02237394    -0.23500
C260        C  0.07687984  0.29252548  0.94570685    -0.04500
N261        N  0.43277461  0.34327792  0.97148481    -0.44600
N262        N  0.07656343  0.14853052  0.02685447    -0.44900
C263        C  0.09747683  0.32698469  0.95298815     0.44400
N264        N  0.04589434  0.20165403  0.96046098     0.03300
N265        N  0.05040647  0.31690440  0.02165427    -0.23600
N266        N  0.46091751  0.28920624  0.96041751    -0.24100
N267        N  0.05023152  0.28936623  0.03648188     0.03000
H268        H  0.08804730  0.36716832  0.01672525     0.08800
H269        H  0.08460906  0.21363373  0.06556242     0.08900
N270        N  0.04641388  0.17459966  0.97555624    -0.24100
N271        N  0.46313263  0.20466941  0.03812585    -0.23700
N272        N  0.04865715  0.31600602  0.97383292     0.03300
C273        C  0.41066881  0.16667547  0.95388079     0.44700
C274        C  0.43351161  0.34305527  0.02648889    -0.05000
N275        N  0.04894305  0.20320098  0.03753734    -0.23700
H276        H  0.42926252  0.21623652  0.06651962     0.08900
N277        N  0.43089384  0.19830631  0.94740808    -0.44900
H278        H  0.42609751  0.36891510  0.01735448     0.08900
C279        C  0.10001230  0.32457266  0.04466466     0.44600
C280        C  0.43057103  0.29510022  0.94698089    -0.04500
Co281      Co  0.00607837  0.31838490  0.99809550     0.73800
N282        N  0.43553208  0.29533913  0.05160592    -0.44700
C283        C  0.09327553  0.16403317  0.95181328     0.44800
N284        N  0.07832774  0.34057662  0.97032470    -0.44600
Co285      Co  0.00654440  0.24714478  0.03768323     0.73900
C286        C  0.07804373  0.19639640  0.05160859    -0.05000
C287        C  0.43002417  0.15121785  0.97293268    -0.04500
N288        N  0.04724412  0.28783807  0.95959684    -0.24100
N289        N  0.43365007  0.15077131  0.02781203    -0.44800
H290        H  0.08257456  0.12328865  0.98054591     0.08800
C291        C  0.08096422  0.34098248  0.02561044    -0.04900
Cl292      Cl  0.00513385  0.24637990  0.99889433    -0.48000
C293        C  0.41506135  0.32733313  0.04577572     0.44600
H294        H  0.08254464  0.27462069  0.93191085     0.08800
N295        N  0.07917072  0.29304296  0.05057269    -0.44700
N296        N  0.19495987  0.38357287  0.87621663    -0.34600
N297        N  0.25541604  0.37649900  0.90900866    -0.55200
N298        N  0.31638462  0.38914326  0.87715925    -0.34600
N299        N  0.25572652  0.39388033  0.84396914    -0.55200
C300        C  0.17329621  0.36863585  0.89245254     0.29000
C301        C  0.17323421  0.38001164  0.85814776     0.29000
C302        C  0.33841079  0.37563952  0.89374412     0.28900
C303        C  0.33857128  0.38562034  0.85930912     0.28900
C304        C  0.22302794  0.37618757  0.92160596     0.37600
C305        C  0.28713231  0.37928148  0.92210914     0.37600
C306        C  0.22346202  0.40388213  0.83229070     0.37600
C307        C  0.28765829  0.40552014  0.83263468     0.37600
C308        C  0.13725412  0.35546165  0.88456490    -0.19900
C309        C  0.13715741  0.36282597  0.86292519    -0.19900
C310        C  0.37521521  0.36387606  0.88633875    -0.19900
C311        C  0.37532782  0.37025654  0.86462388    -0.19900
C312        C  0.23418357  0.37909439  0.94286080    -0.21000
C313        C  0.27484964  0.38105881  0.94317912    -0.21000
C314        C  0.23496114  0.42161966  0.81335205    -0.21000
C315        C  0.27567369  0.42257819  0.81354918    -0.21000
C316        C  0.18415313  0.36894497  0.91430546    -0.16300
C317        C  0.18403961  0.39467296  0.83786824    -0.16300
C318        C  0.32735521  0.39827793  0.83864317    -0.16300
C319        C  0.32675556  0.37502134  0.91544038    -0.16300
H320        H  0.11319881  0.34251109  0.89350968     0.16600
H321        H  0.11310225  0.35663707  0.85199587     0.16600
H322        H  0.39958283  0.35204811  0.89561106     0.16600
H323        H  0.39974744  0.36435766  0.85396819     0.16600
H324        H  0.21510678  0.37855909  0.95671203     0.14900
H325        H  0.29331396  0.38225808  0.95732153     0.14900
H326        H  0.21602615  0.43229295  0.80061071     0.14900
H327        H  0.29431735  0.43417745  0.80100679     0.14900
H328        H  0.22090151  0.39959949  0.87771900     0.28100
H329        H  0.28945401  0.40371410  0.87823499     0.28100
N330        N  0.25480705  0.10353248  0.84360225    -0.34600
N331        N  0.19319126  0.11480704  0.87509156    -0.55200
N332        N  0.25304361  0.12167109  0.90830691    -0.34600
N333        N  0.31471997  0.11284383  0.87635715    -0.55200
C334        C  0.22301663  0.10920139  0.83070892     0.29000
C335        C  0.28763271  0.10731548  0.83142528     0.29000
C336        C  0.22054525  0.13388385  0.91889439     0.28900
C337        C  0.28499122  0.13398253  0.91943656     0.28900
C338        C  0.17029918  0.10482727  0.85828724     0.37600
C339        C  0.16949172  0.11408898  0.89239966     0.37600
C340        C  0.33838142  0.10153947  0.86019544     0.37600
C341        C  0.33741049  0.11286733  0.89414509     0.37600
C342        C  0.23578588  0.11646530  0.81004262    -0.19900
C343        C  0.27657124  0.11523823  0.81048859    -0.19900
C344        C  0.23193369  0.15340573  0.93723402    -0.19900
C345        C  0.27262908  0.15352371  0.93756080    -0.19900
C346        C  0.13178946  0.09784563  0.86494091    -0.21000
C347        C  0.13126651  0.10381399  0.88657596    -0.21000
C348        C  0.37637041  0.09431546  0.86775861    -0.21000
C349        C  0.37579675  0.10169740  0.88927756    -0.21000
C350        C  0.18294720  0.10515942  0.83685951    -0.16300
C351        C  0.32704920  0.10142025  0.83849012    -0.16300
C352        C  0.32489593  0.12658123  0.91417516    -0.16300
C353        C  0.18096989  0.12656241  0.91287363    -0.16300
H354        H  0.21759300  0.12158640  0.79603704     0.16600
H355        H  0.29586781  0.11930187  0.79689246     0.16600
H356        H  0.21292491  0.16625028  0.94915904     0.16600
H357        H  0.29099168  0.16642618  0.94981276     0.16600
H358        H  0.10651639  0.09011930  0.85517502     0.14900
H359        H  0.10553350  0.10166239  0.89677513     0.14900
H360        H  0.40206472  0.08571651  0.85863525     0.14900
H361        H  0.40091396  0.09981653  0.90002867     0.14900
H362        H  0.25405426  0.09290393  0.85915546     0.28100
H363        H  0.25334011  0.10280128  0.89542359     0.28100
C364        C  0.42197966  0.41065909  0.69852014     0.44400
N365        N  0.43416258  0.45850543  0.71922580     0.03300
C366        C  0.10320704  0.07313065  0.71780503    -0.04600
H367        H  0.12801111  0.42057002  0.72763731     0.08800
C368        C  0.05841767  0.43492453  0.79998915    -0.04900
Co369      Co  0.00687249  0.50131987  0.70526536     0.74200
N370        N  0.07751239  0.45805613  0.72164458    -0.24100
Co371      Co  0.07762206  0.50080673  0.74531859     0.74100
C372        C  0.09719926  0.41964154  0.79403162     0.44500
N373        N  0.45826936  0.45887018  0.78264161     0.02900
N374        N  0.07629846  0.45885833  0.76952789     0.03000
N375        N  0.05622450  0.07179015  0.69191120    -0.44900
H376        H  0.47604658  0.42371665  0.67760349     0.08800
N377        N  0.05040800  0.45861573  0.70640111     0.03300
N378        N  0.07614558  0.04297784  0.76903370     0.03100
C379        C  0.09678431  0.08337857  0.79263554     0.44700
N380        N  0.43167468  0.45883374  0.76711074    -0.23500
C381        C  0.45801458  0.07365756  0.69137969    -0.04500
N382        N  0.40850021  0.42986186  0.71581831    -0.44600
N383        N  0.10599386  0.06615946  0.77403604    -0.44900
C384        C  0.42244820  0.09293900  0.69877542     0.44400
N385        N  0.05088992  0.04363284  0.70614967     0.03300
N386        N  0.43149743  0.04303194  0.76694838    -0.23600
N387        N  0.46299239  0.45908327  0.70504518    -0.24100
N388        N  0.45814882  0.04297440  0.78243795     0.03000
H389        H  0.37316036  0.06784347  0.76447742     0.08800
H390        H  0.04375787  0.07008143  0.81436345     0.08900
N391        N  0.07791917  0.04360635  0.72141910    -0.24100
N392        N  0.04782009  0.45887358  0.78393345    -0.23700
N393        N  0.43441062  0.04424232  0.71924180     0.03300
C394        C  0.08688555  0.40982305  0.69880413     0.44700
C395        C  0.40206339  0.43487236  0.77263610    -0.05000
N396        N  0.04776115  0.04321178  0.78349108    -0.23700
H397        H  0.04389853  0.43335171  0.81533988     0.08900
N398        N  0.05504333  0.43038005  0.69237363    -0.44900
H399        H  0.37367547  0.43344297  0.76461421     0.08900
C400        C  0.41215905  0.08125207  0.79350164     0.44600
C401        C  0.45768830  0.42994199  0.69127777    -0.04500
Co402      Co  0.43217725  0.50110395  0.74303191     0.73800
N403        N  0.44767728  0.43644994  0.79895091    -0.44700
C404        C  0.08845681  0.09162749  0.69830182     0.44800
N405        N  0.40888793  0.07314915  0.71596395    -0.44600
Co406      Co  0.00304874  0.50098310  0.78336558     0.73900
C407        C  0.05822255  0.06791271  0.79903153    -0.05000
C408        C  0.10226369  0.42805617  0.71813182    -0.04500
N409        N  0.46323711  0.04398901  0.70505188    -0.24100
N410        N  0.10647100  0.43627513  0.77512726    -0.44800
H411        H  0.12893610  0.08012806  0.72736610     0.08800
C412        C  0.40162535  0.06660910  0.77244369    -0.04900
Cl413      Cl  0.00490444  0.50103329  0.74429921    -0.48000
C414        C  0.41270397  0.41989267  0.79374382     0.44600
H415        H  0.47621119  0.08012153  0.67763023     0.08800
N416        N  0.44733743  0.06494966  0.79871585    -0.44700
N417        N  0.25584023  0.12173108  0.15576446    -0.34600
N418        N  0.19556392  0.12234400  0.12206383    -0.55200
N419        N  0.25687135  0.12660197  0.09006762    -0.34600
N420        N  0.31726904  0.12256367  0.12339718    -0.55200
C421        C  0.22317028  0.11157991  0.16697877     0.29000
C422        C  0.28796087  0.11176447  0.16765190     0.29000
C423        C  0.22499823  0.12072577  0.07735030     0.28900
C424        C  0.28951544  0.12088334  0.07809046     0.28900
C425        C  0.17216153  0.12711647  0.13930761     0.37600
C426        C  0.17272471  0.13004999  0.10475075     0.37600
C427        C  0.34006970  0.12732739  0.14095719     0.37600
C428        C  0.34060589  0.13050378  0.10644607     0.37600
C429        C  0.23466546  0.09535392  0.18640141    -0.19900
C430        C  0.27554649  0.09546042  0.18682288    -0.19900
C431        C  0.23753996  0.11135189  0.05696190    -0.19900
C432        C  0.27832599  0.11146035  0.05742513    -0.19900
C433        C  0.13419998  0.13747348  0.13292249    -0.21000
C434        C  0.13456566  0.13940699  0.11105056    -0.21000
C435        C  0.37820342  0.13780463  0.13514911    -0.21000
C436        C  0.37853046  0.13992550  0.11328420    -0.21000
C437        C  0.18343979  0.11849181  0.16052985    -0.16300
C438        C  0.32795552  0.11876725  0.16197093    -0.16300
C439        C  0.32885028  0.12727394  0.08487031    -0.16300
C440        C  0.18516698  0.12660727  0.08332504    -0.16300
H441        H  0.21559417  0.08471760  0.19901046     0.16600
H442        H  0.29399574  0.08490782  0.19980430     0.16600
H443        H  0.21921848  0.10566252  0.04311832     0.16600
H444        H  0.29755998  0.10589843  0.04399327     0.16600
H445        H  0.10871088  0.14252013  0.14296737     0.14900
H446        H  0.10941669  0.14637501  0.10095956     0.14900
H447        H  0.40329497  0.14290024  0.14556528     0.14900
H448        H  0.40396378  0.14706797  0.10354787     0.14900
H449        H  0.25609742  0.13826403  0.14179945     0.28100
H450        H  0.25649075  0.13882898  0.10517264     0.28100
N451        N  0.25684419  0.37637919  0.15851557    -0.34600
N452        N  0.19539079  0.36840011  0.12573589    -0.55200
N453        N  0.25615354  0.36057803  0.09323723    -0.34600
N454        N  0.31750108  0.37145449  0.12525265    -0.55200
C455        C  0.22425141  0.38729075  0.16962115     0.29000
C456        C  0.28916845  0.38876353  0.16946296     0.29000
C457        C  0.22354909  0.36303299  0.08067687     0.28900
C458        C  0.28815007  0.36374219  0.08039279     0.28900
C459        C  0.17241538  0.36714652  0.14334399     0.37600
C460        C  0.17210121  0.35797454  0.10912448     0.37600
C461        C  0.34141381  0.37291559  0.14258901     0.37600
C462        C  0.34096028  0.36300605  0.10842129     0.37600
C463        C  0.23610347  0.40588867  0.18817435    -0.19900
C464        C  0.27695045  0.40672820  0.18809948    -0.19900
C465        C  0.23499673  0.36775695  0.05956007    -0.19900
C466        C  0.27573481  0.36807620  0.05937967    -0.19900
C467        C  0.13424155  0.35596822  0.13789663    -0.21000
C468        C  0.13406534  0.35006440  0.11623334    -0.21000
C469        C  0.38033497  0.36594048  0.13667339    -0.21000
C470        C  0.38002433  0.35956757  0.11508437    -0.21000
C471        C  0.18420346  0.38008583  0.16374510    -0.16300
C472        C  0.32935456  0.38376794  0.16330582    -0.16300
C473        C  0.32814815  0.36042632  0.08693978    -0.16300
C474        C  0.18399231  0.35796500  0.08749020    -0.16300
H475        H  0.21729028  0.41780486  0.20047492     0.16600
H476        H  0.29551748  0.41950999  0.20030187     0.16600
H477        H  0.21599037  0.36995706  0.04564828     0.16600
H478        H  0.29412579  0.37072967  0.04532718     0.16600
H479        H  0.10896640  0.35311317  0.14837805     0.14900
H480        H  0.10863950  0.34167604  0.10675575     0.14900
H481        H  0.40638774  0.36601527  0.14679586     0.14900
H482        H  0.40577560  0.35379086  0.10535839     0.14900
H483        H  0.25711282  0.35869698  0.14515024     0.28100
H484        H  0.25661436  0.35231824  0.10917274     0.28100
C485        C  0.15299720  0.10083396  0.82038128    -0.11300
C486        C  0.12707331  0.09466130  0.80753292    -0.12900
C487        C  0.35767980  0.09610302  0.82256412    -0.11300
C488        C  0.38299881  0.09051890  0.80936655    -0.12900
C489        C  0.12717646  0.40814146  0.80923254    -0.11300
C490        C  0.15295596  0.40093873  0.82210380    -0.12900
C491        C  0.38360726  0.40984976  0.80961425    -0.11300
C492        C  0.35821562  0.40382862  0.82278370    -0.12900
C493        C  0.15548718  0.13156142  0.06667186    -0.11300
C494        C  0.12881107  0.14125119  0.05488314    -0.12900
C495        C  0.38431134  0.14395604  0.05675625    -0.11300
C496        C  0.35865378  0.13335525  0.06870844    -0.12900
C497        C  0.12968532  0.34158151  0.05815319    -0.11300
C498        C  0.15413650  0.35097876  0.07122937    -0.12900
C499        C  0.38347671  0.34345286  0.05834311    -0.11300
C500        C  0.35785572  0.35303224  0.07068276    -0.12900
C501        C  0.12866353  0.34641406  0.94160472    -0.11300
C502        C  0.15426752  0.35844869  0.92990690    -0.12900
C503        C  0.38154878  0.35170939  0.94318549    -0.11300
C504        C  0.35636699  0.36474390  0.93139746    -0.12900
C505        C  0.12422629  0.14699326  0.93950399    -0.11300
C506        C  0.15010526  0.13595512  0.92788547    -0.12900
C507        C  0.35501089  0.13690912  0.92956184    -0.11300
C508        C  0.38027152  0.14878620  0.94141806    -0.12900
C509        C  0.38705876  0.40431144  0.19007104    -0.11300
C510        C  0.36056427  0.39352961  0.17847746    -0.12900
C511        C  0.12666665  0.40311124  0.18973426    -0.11300
C512        C  0.15281327  0.39045593  0.17857281    -0.12900
C513        C  0.38526205  0.10411114  0.19001917    -0.11300
C514        C  0.35890435  0.11330713  0.17790133    -0.12900
C515        C  0.12530346  0.10499044  0.18807831    -0.11300
C516        C  0.15186487  0.11329037  0.17600301    -0.12900
C517        C  0.10514293  0.12366957  0.68650271    -0.11300
C518        C  0.11543431  0.15011413  0.67499926    -0.12900
C519        C  0.10325051  0.37820808  0.68674673    -0.11300
C520        C  0.11300278  0.35234729  0.67489406    -0.12900
C521        C  0.39051858  0.14981910  0.67621738    -0.11300
C522        C  0.40222227  0.12384268  0.68767190    -0.12900
C523        C  0.40284801  0.37879331  0.68783114    -0.11300
C524        C  0.39208016  0.35246678  0.67650410    -0.12900
C525        C  0.36677794  0.15155758  0.56705538    -0.11300
C526        C  0.35757170  0.12552632  0.55511535    -0.12900
C527        C  0.35804713  0.37773386  0.55500718    -0.11300
C528        C  0.36760874  0.35188386  0.56712772    -0.12900
C529        C  0.16167312  0.12594995  0.55505545    -0.11300
C530        C  0.15305959  0.15186042  0.56712311    -0.12900
C531        C  0.15116527  0.35283418  0.56685141    -0.11300
C532        C  0.15949400  0.37904334  0.55473886    -0.12900
C533        C  0.12031572  0.15196496  0.32146401    -0.11300
C534        C  0.11111964  0.12513101  0.31005321    -0.12900
C535        C  0.11369811  0.38380117  0.30981196    -0.11300
C536        C  0.12239053  0.35618097  0.32096191    -0.12900
C537        C  0.16016915  0.12703027  0.44105086    -0.11300
C538        C  0.14912789  0.15313769  0.42957366    -0.12900
C539        C  0.14871185  0.35472479  0.42958183    -0.11300
C540        C  0.15872255  0.38123278  0.44088658    -0.12900
C541        C  0.39222416  0.15113948  0.32052232    -0.11300
C542        C  0.40331475  0.12436916  0.30968040    -0.12900
C543        C  0.39123855  0.35570793  0.32118580    -0.11300
C544        C  0.40406310  0.38235427  0.31047623    -0.12900
C545        C  0.36858731  0.15148310  0.42915015    -0.11300
C546        C  0.35979529  0.12587683  0.44148855    -0.12900
C547        C  0.35569766  0.37815192  0.44098620    -0.11300
C548        C  0.36256545  0.35176271  0.42888986    -0.12900
N549        N  0.37725925  0.75258384  0.34084306    -0.34600
N550        N  0.37194877  0.81155170  0.37398987    -0.55200
N551        N  0.36961345  0.75156080  0.40665258    -0.34600
N552        N  0.37712012  0.69238695  0.37411047    -0.55200
C553        C  0.38797258  0.78485701  0.32965709     0.29000
C554        C  0.38901036  0.72108003  0.32957724     0.29000
C555        C  0.37435961  0.78340415  0.41898056     0.28900
C556        C  0.37741856  0.72002722  0.41901108     0.28900
C557        C  0.36863868  0.83459311  0.35649182     0.37600
C558        C  0.36253011  0.83386434  0.39094051     0.37600
C559        C  0.37444734  0.66952923  0.35671273     0.37600
C560        C  0.37060681  0.66901538  0.39119697     0.37600
C561        C  0.40585851  0.77363898  0.31075086    -0.19900
C562        C  0.40641151  0.73344224  0.31067332    -0.19900
C563        C  0.38511894  0.77195642  0.43947864    -0.19900
C564        C  0.38701624  0.73189944  0.43950193    -0.19900
C565        C  0.35688437  0.87170635  0.36233110    -0.21000
C566        C  0.35280190  0.87119808  0.38413037    -0.21000
C567        C  0.36654464  0.63137984  0.36278950    -0.21000
C568        C  0.36407077  0.63106754  0.38462752    -0.21000
C569        C  0.38097386  0.82401288  0.33582124    -0.16300
C570        C  0.38360810  0.68158649  0.33574042    -0.16300
C571        C  0.37300404  0.68092680  0.41268825    -0.16300
C572        C  0.36659352  0.82217290  0.41252991    -0.16300
H573        H  0.41737507  0.79244005  0.29830033     0.16600
H574        H  0.41855305  0.71539700  0.29819113     0.16600
H575        H  0.39048897  0.79050362  0.45308162     0.16600
H576        H  0.39411874  0.71356975  0.45312055     0.16600
H577        H  0.35276753  0.89681861  0.35201388     0.14900
H578        H  0.34494441  0.89588878  0.39389434     0.14900
H579        H  0.36376008  0.60620481  0.35258886     0.14900
H580        H  0.35888742  0.60563770  0.39453402     0.14900
H581        H  0.35997664  0.75195155  0.35453709     0.28100
H582        H  0.35685013  0.75112337  0.39155152     0.28100
N583        N  0.13479568  0.81350739  0.37542015    -0.34600
N584        N  0.13757252  0.75404201  0.40866932    -0.55200
N585        N  0.13367594  0.69441524  0.37559642    -0.34600
N586        N  0.12713008  0.75388460  0.34258690    -0.55200
C587        C  0.13164811  0.83583585  0.39306238     0.29000
C588        C  0.12573207  0.83625057  0.35839452     0.29000
C589        C  0.12937641  0.67256569  0.39348260     0.28900
C590        C  0.12303743  0.67203275  0.35885935     0.28900
C591        C  0.14837575  0.78533310  0.42025709     0.37600
C592        C  0.14827288  0.72242132  0.42025439     0.37600
C593        C  0.12842588  0.78569554  0.32969423     0.37600
C594        C  0.12775779  0.72216814  0.32983752     0.37600
C595        C  0.12075858  0.87335049  0.38718368    -0.19900
C596        C  0.11705331  0.87365549  0.36535578    -0.19900
C597        C  0.11596845  0.63575934  0.38809327    -0.19900
C598        C  0.11193437  0.63540006  0.36626180    -0.19900
C599        C  0.16532224  0.77358436  0.43943082    -0.21000
C600        C  0.16531895  0.73363633  0.43941685    -0.21000
C601        C  0.12912671  0.77408517  0.30853076    -0.21000
C602        C  0.12872711  0.73392204  0.30862224    -0.21000
C603        C  0.14191398  0.82431078  0.41404823    -0.16300
C604        C  0.12669266  0.82496116  0.33669738    -0.16300
C605        C  0.12490032  0.68295464  0.33705803    -0.16300
C606        C  0.14113669  0.68364684  0.41420024    -0.16300
H607        H  0.11664080  0.89816363  0.39750812     0.16600
H608        H  0.10924966  0.89882621  0.35572631     0.16600
H609        H  0.11040668  0.61144135  0.39875576     0.16600
H610        H  0.10236402  0.61072560  0.35691365     0.16600
H611        H  0.17670270  0.79187438  0.45204175     0.14900
H612        H  0.17658463  0.71499288  0.45205755     0.14900
H613        H  0.12938995  0.79261532  0.29448070     0.14900
H614        H  0.12855760  0.71551274  0.29466564     0.14900
H615        H  0.14703118  0.78577455  0.37480886     0.28100
H616        H  0.14801896  0.72114283  0.37470251     0.28100
C617        C  0.17711340  0.91347124  0.45139516     0.44400
N618        N  0.18874156  0.96106745  0.47223563     0.03300
C619        C  0.35802329  0.57530489  0.47276781    -0.04600
H620        H  0.38246180  0.92103865  0.48157643     0.08800
C621        C  0.30372094  0.92887434  0.55055107    -0.04900
Co622      Co  0.26231670  0.50341144  0.45906649     0.74200
N623        N  0.33278593  0.95963972  0.47552936    -0.24100
Co624      Co  0.33252278  0.50199381  0.49964085     0.74100
C625        C  0.33939042  0.90932680  0.54365492     0.44500
N626        N  0.21225771  0.95978700  0.53516854     0.02900
N627        N  0.32928179  0.95862794  0.52330598     0.03000
N628        N  0.31123192  0.57424268  0.44677569    -0.44900
H629        H  0.23175585  0.92637648  0.43090786     0.08800
N630        N  0.30566304  0.96053502  0.46027271     0.03300
N631        N  0.32967002  0.54458721  0.52359885     0.03100
C632        C  0.33965972  0.59329726  0.54410813     0.44700
N633        N  0.18507165  0.96007517  0.51995791    -0.23500
C634        C  0.21470838  0.57598729  0.44501824    -0.04500
N635        N  0.16316547  0.93248642  0.46861335    -0.44600
N636        N  0.35438606  0.57403442  0.52709393    -0.44900
C637        C  0.17928025  0.59564219  0.45218576     0.44400
N638        N  0.30635761  0.54540572  0.46060171     0.03300
N639        N  0.18597703  0.54563542  0.52014432    -0.23600
N640        N  0.21805343  0.96158861  0.45831639    -0.24100
N641        N  0.21298322  0.54463844  0.53544045     0.03000
H642        H  0.13621687  0.58408442  0.51406739     0.08800
H643        H  0.28527619  0.57926484  0.56451127     0.08500
N644        N  0.33325965  0.54519453  0.47595797    -0.24100
N645        N  0.29967126  0.95889173  0.53702669    -0.23700
N646        N  0.18967810  0.54654428  0.47251799     0.03300
C647        C  0.34147248  0.91133015  0.45255300     0.44700
C648        C  0.15994145  0.93032143  0.52353296    -0.05000
N649        N  0.30027779  0.54370710  0.53744609    -0.23700
H650        H  0.28468164  0.92232101  0.56394775     0.08900
N651        N  0.30988976  0.93229772  0.44622120    -0.44900
H652        H  0.13416344  0.92328943  0.51401789     0.08900
C653        C  0.17716926  0.59385952  0.54308272     0.44600
C654        C  0.21301248  0.93263920  0.44442577    -0.04500
Co655      Co  0.18615471  0.50334549  0.49617911     0.73800
N656        N  0.20733992  0.93129968  0.54919907    -0.44700
C657        C  0.34291667  0.59440533  0.45352306     0.44800
N658        N  0.16472589  0.57584604  0.46911156    -0.44600
Co659      Co  0.25628934  0.50171281  0.53663258     0.73900
C660        C  0.30436038  0.57315643  0.55111339    -0.05000
C661        C  0.35710877  0.92925810  0.47194530    -0.04500
N662        N  0.21900749  0.54612620  0.45862500    -0.24100
N663        N  0.35428587  0.92933356  0.52683957    -0.44800
H664        H  0.38349383  0.58244839  0.48249086     0.08800
C665        C  0.16164097  0.57598769  0.52367655    -0.04900
Cl666      Cl  0.25931982  0.50256720  0.49787052    -0.48000
C667        C  0.17524443  0.91139061  0.54285856     0.44600
H668        H  0.23346345  0.58238566  0.43147828     0.08800
N669        N  0.20863904  0.57281826  0.54951484    -0.44700
N670        N  0.37913431  0.69191685  0.62209388    -0.34600
N671        N  0.38013666  0.75151842  0.65544738    -0.55200
N672        N  0.37983351  0.81104422  0.62225650    -0.34600
N673        N  0.37527261  0.75149307  0.58928693    -0.55200
C674        C  0.37297570  0.67000549  0.63981051     0.29000
C675        C  0.36899677  0.67002244  0.60500552     0.29000
C676        C  0.37533344  0.83335496  0.63983410     0.28900
C677        C  0.37050912  0.83335768  0.60504564     0.28900
C678        C  0.38817563  0.71968843  0.66752765     0.37600
C679        C  0.38887399  0.78277602  0.66761449     0.37600
C680        C  0.37861948  0.72009106  0.57652156     0.37600
C681        C  0.37877203  0.78324321  0.57658749     0.37600
C682        C  0.35910342  0.63360185  0.63395186    -0.19900
C683        C  0.35639934  0.63365672  0.61201873    -0.19900
C684        C  0.36340530  0.87045513  0.63373250    -0.19900
C685        C  0.36010209  0.87040871  0.61182933    -0.19900
C686        C  0.40098174  0.73077580  0.68765271    -0.21000
C687        C  0.40140729  0.77076261  0.68770739    -0.21000
C688        C  0.38427660  0.73192687  0.55555297    -0.21000
C689        C  0.38433318  0.77195755  0.55558933    -0.21000
C690        C  0.38280210  0.68080927  0.66091691    -0.16300
C691        C  0.37272374  0.68121320  0.58326880    -0.16300
C692        C  0.37343821  0.82204770  0.58336344    -0.16300
C693        C  0.38454659  0.82197842  0.66103183    -0.16300
H694        H  0.35200254  0.60938293  0.64440717     0.16600
H695        H  0.34674132  0.60943380  0.60234659     0.16600
H696        H  0.35797838  0.89512144  0.64398806     0.16600
H697        H  0.35169141  0.89515187  0.60201063     0.16600
H698        H  0.40918769  0.71202813  0.70091548     0.14900
H699        H  0.41005375  0.78889068  0.70099618     0.14900
H700        H  0.38707907  0.71365784  0.54162711     0.14900
H701        H  0.38725535  0.79061757  0.54168498     0.14900
H702        H  0.39401724  0.71835542  0.62167349     0.28100
H703        H  0.39302848  0.78378052  0.62188074     0.28100
N704        N  0.13180403  0.81138750  0.62109801    -0.34600
N705        N  0.14312067  0.75211036  0.58873527    -0.55200
N706        N  0.13411444  0.69244475  0.62134607    -0.34600
N707        N  0.12537002  0.75165112  0.65407992    -0.55200
C708        C  0.14491896  0.83349979  0.60459712     0.29000
C709        C  0.13433662  0.83322924  0.63896845     0.29000
C710        C  0.14688416  0.67055695  0.60483767     0.28900
C711        C  0.13716019  0.67040004  0.63928038     0.28900
C712        C  0.14124749  0.78375469  0.57583526     0.37600
C713        C  0.14184175  0.72063937  0.57592689     0.37600
C714        C  0.11387836  0.78293064  0.66548573     0.37600
C715        C  0.11528497  0.71984844  0.66566381     0.37600
C716        C  0.15581931  0.86991124  0.61210202    -0.19900
C717        C  0.14901067  0.86977010  0.63376352    -0.19900
C718        C  0.15815695  0.63408213  0.61240817    -0.19900
C719        C  0.15196879  0.63397767  0.63411994    -0.19900
C720        C  0.13909969  0.77235964  0.55466618    -0.21000
C721        C  0.13944023  0.73233880  0.55472539    -0.21000
C722        C  0.09694991  0.77098794  0.68457455    -0.21000
C723        C  0.09787026  0.73097284  0.68469515    -0.21000
C724        C  0.14488499  0.82258293  0.58282170    -0.16300
C725        C  0.12087437  0.82199653  0.65946499    -0.16300
C726        C  0.12344737  0.68106895  0.65973623    -0.16300
C727        C  0.14627365  0.68175552  0.58302236    -0.16300
H728        H  0.16698992  0.89429476  0.60289025     0.16600
H729        H  0.15388809  0.89397460  0.64442978     0.16600
H730        H  0.16908107  0.60978742  0.60320972     0.16600
H731        H  0.15710235  0.60960123  0.64483308     0.16600
H732        H  0.13817809  0.79092686  0.54063453     0.14900
H733        H  0.13884217  0.71398669  0.54074910     0.14900
H734        H  0.08548055  0.78918493  0.69717249     0.14900
H735        H  0.08719900  0.71224370  0.69739637     0.14900
H736        H  0.11736114  0.78482567  0.61984877     0.28100
H737        H  0.11939770  0.71891313  0.62008902     0.28100
C738        C  0.42377296  0.59555166  0.29731387     0.44400
N739        N  0.46217314  0.57498863  0.27288936     0.03300
C740        C  0.45410906  0.90915703  0.21141826    -0.04600
H741        H  0.48000395  0.87412603  0.28785726     0.08800
C742        C  0.10768718  0.95116519  0.28951822    -0.04900
Co743      Co  0.43524960  0.00127549  0.25287158     0.74200
N744        N  0.46849395  0.93019062  0.27351866    -0.24100
Co745      Co  0.01082686  0.93330572  0.24962140     0.74100
C746        C  0.09403798  0.91276138  0.29693238     0.44500
N747        N  0.07707554  0.55268823  0.27439219     0.02900
N748        N  0.05460781  0.93382888  0.27276825     0.03000
N749        N  0.40551704  0.95370090  0.21595883    -0.44900
H750        H  0.38335637  0.54169410  0.29447502     0.08800
N751        N  0.43975673  0.95599208  0.27567114     0.03300
N752        N  0.05573594  0.93746754  0.22649165     0.03100
C753        C  0.09949272  0.92520317  0.20263593     0.44700
N754        N  0.04807691  0.57834132  0.27237067    -0.23500
C755        C  0.40210966  0.54894060  0.21548975    -0.04500
N756        N  0.45564074  0.60469174  0.28565699    -0.44600
N757        N  0.06559380  0.91178747  0.21161055    -0.44900
C758        C  0.41224314  0.58412659  0.20408815     0.44400
N759        N  0.43517767  0.95921547  0.22940186     0.03300
N760        N  0.04969037  0.57533409  0.22607147    -0.23600
N761        N  0.43645263  0.54631259  0.27536053    -0.24100
N762        N  0.07906501  0.55009230  0.22816605     0.03000
H763        H  0.04290488  0.62666987  0.20605219     0.08800
H764        H  0.13743616  0.97740766  0.21231443     0.08900
N765        N  0.46436069  0.93393294  0.22711094    -0.24100
N766        N  0.08084711  0.96218273  0.27460880    -0.23700
N767        N  0.45823213  0.57166715  0.22677623     0.03300
C768        C  0.42658962  0.91031208  0.29823681     0.44700
C769        C  0.05347545  0.60720693  0.28618236    -0.05000
N770        N  0.08228934  0.96550031  0.22823518    -0.23700
H771        H  0.13494055  0.96626783  0.29319275     0.08900
N772        N  0.41309895  0.94455141  0.29001749    -0.44900
H773        H  0.03574453  0.63339258  0.28713319     0.08900
C774        C  0.09811836  0.58738219  0.20283312     0.44600
C775        C  0.41033350  0.55699306  0.29046438    -0.04500
Co776      Co  0.00454399  0.57563989  0.24913765     0.73800
N777        N  0.10383000  0.56378671  0.28879329    -0.44700
C778        C  0.41521151  0.92295772  0.20398690     0.44800
N779        N  0.44705098  0.59751802  0.21200677    -0.44600
Co780      Co  0.08051180  0.00759649  0.25177412     0.73900
C781        C  0.11063876  0.96035112  0.21371148    -0.05000
C782        C  0.46288576  0.90076597  0.28724166    -0.04500
N783        N  0.43185694  0.54361476  0.22925359    -0.24100
N784        N  0.06135414  0.90418605  0.28578766    -0.44800
H785        H  0.47033162  0.88333157  0.20691622     0.08800
C786        C  0.05932925  0.60071544  0.21038574    -0.04900
Cl787      Cl  0.00779712  0.00445287  0.25090951    -0.48000
C788        C  0.08991354  0.59758646  0.29705897     0.44600
H789        H  0.37530772  0.53176905  0.21472323     0.08800
N790        N  0.10829207  0.55623959  0.21462400    -0.44700
C791        C  0.41180709  0.83043620  0.95453925     0.44400
N792        N  0.46163529  0.81752149  0.97460596     0.03300
C793        C  0.07557099  0.64927718  0.97138589    -0.04600
H794        H  0.42340425  0.62538581  0.98215516     0.08800
C795        C  0.43459563  0.69886155  0.05250372    -0.04900
Co796      Co  0.00346508  0.74549207  0.96005446     0.74200
N797        N  0.46019870  0.67586542  0.97645137    -0.24100
Co798      Co  0.00435578  0.67451249  0.99978050     0.74100
C799        C  0.41519021  0.66360064  0.04549235     0.44500
N800        N  0.46385174  0.79091466  0.03725769     0.02900
N801        N  0.46211964  0.67647867  0.02394459     0.03000
N802        N  0.07341808  0.69632849  0.94582236    -0.44900
H803        H  0.42344969  0.77759480  0.93323137     0.08800
N804        N  0.45991483  0.70299893  0.96140304     0.03300
N805        N  0.04860075  0.67507629  0.02327107     0.03100
C806        C  0.09633025  0.66061784  0.04439587     0.44700
N807        N  0.46347105  0.81835569  0.02236787    -0.23500
C808        C  0.07695200  0.79253529  0.94574817    -0.04500
N809        N  0.43275741  0.84329011  0.97150953    -0.44600
N810        N  0.07661112  0.64855526  0.02683536    -0.44900
C811        C  0.09756525  0.82697192  0.95305175     0.44400
N812        N  0.04587992  0.70169731  0.96046274     0.03300
N813        N  0.05041715  0.81689862  0.02165568    -0.23600
N814        N  0.46094815  0.78926426  0.96041396    -0.24100
N815        N  0.05023665  0.78934662  0.03647473     0.03000
H816        H  0.08814986  0.86709243  0.01670845     0.08800
H817        H  0.08469475  0.71363330  0.06555157     0.08900
N818        N  0.04640083  0.67464061  0.97555665    -0.24100
N819        N  0.46316169  0.70468819  0.03814421    -0.23700
N820        N  0.04866468  0.81603836  0.97384776     0.03300
C821        C  0.41059859  0.66683733  0.95392891     0.44700
C822        C  0.43347023  0.84303269  0.02647128    -0.05000
N823        N  0.04897669  0.70320265  0.03754284    -0.23700
H824        H  0.42932738  0.71621466  0.06655760     0.08900
N825        N  0.43085931  0.69843439  0.94744031    -0.44900
H826        H  0.42602982  0.86888348  0.01733518     0.08900
C827        C  0.10009890  0.82444977  0.04463025     0.44600
C828        C  0.43056535  0.79512715  0.94699770    -0.04500
Co829      Co  0.00608005  0.81840532  0.99810446     0.73800
N830        N  0.43550349  0.79529814  0.05157660    -0.44700
C831        C  0.09327183  0.66409359  0.95181620     0.44800
N832        N  0.07836907  0.84058140  0.97036786    -0.44600
Co833      Co  0.00655772  0.74714205  0.03769058     0.73900
C834        C  0.07811421  0.69640369  0.05159684    -0.05000
C835        C  0.42998649  0.65134601  0.97296336    -0.04500
N836        N  0.04726416  0.78787419  0.95960956    -0.24100
N837        N  0.43370257  0.65077485  0.02783796    -0.44800
H838        H  0.08258233  0.62334512  0.98054807     0.08800
C839        C  0.08102914  0.84091976  0.02559659    -0.04900
Cl840      Cl  0.00513603  0.74640172  0.99890148    -0.48000
C841        C  0.41499762  0.82726516  0.04574286     0.44600
H842        H  0.08264928  0.77462481  0.93195836     0.08800
N843        N  0.07921773  0.79295503  0.05054244    -0.44700
N844        N  0.19496045  0.88364157  0.87626393    -0.34600
N845        N  0.25541696  0.87654456  0.90904939    -0.55200
N846        N  0.31637253  0.88913985  0.87719241    -0.34600
N847        N  0.25571244  0.89391661  0.84400875    -0.55200
C848        C  0.17330705  0.86868697  0.89249831     0.29000
C849        C  0.17323819  0.88006860  0.85819498     0.29000
C850        C  0.33840509  0.87564468  0.89377589     0.28900
C851        C  0.33855788  0.88563385  0.85934131     0.28900
C852        C  0.22303478  0.87624430  0.92164974     0.37600
C853        C  0.28713750  0.87930526  0.92214686     0.37600
C854        C  0.22344738  0.90398186  0.83234741     0.37600
C855        C  0.28764201  0.90559050  0.83268361     0.37600
C856        C  0.13727820  0.85548145  0.88460914    -0.19900
C857        C  0.13717744  0.86284893  0.86296940    -0.19900
C858        C  0.37521400  0.86389708  0.88636849    -0.19900
C859        C  0.37532135  0.87028232  0.86465324    -0.19900
C860        C  0.23419770  0.87913417  0.94290437    -0.21000
C861        C  0.27486398  0.88107755  0.94321893    -0.21000
C862        C  0.23494251  0.92179178  0.81342877    -0.21000
C863        C  0.27565521  0.92273158  0.81362074    -0.21000
C864        C  0.18415981  0.86901103  0.91435101    -0.16300
C865        C  0.18402729  0.89476690  0.83792188    -0.16300
C866        C  0.32733819  0.89832212  0.83868139    -0.16300
C867        C  0.32675437  0.87503300  0.91547281    -0.16300
H868        H  0.11323337  0.84251079  0.89355336     0.16600
H869        H  0.11312866  0.85664531  0.85203868     0.16600
H870        H  0.39959098  0.85208665  0.89564042     0.16600
H871        H  0.39974572  0.86440708  0.85399678     0.16600
H872        H  0.21512565  0.87859727  0.95675755     0.14900
H873        H  0.29333351  0.88225865  0.95735995     0.14900
H874        H  0.21600429  0.93253132  0.80070546     0.14900
H875        H  0.29429738  0.93438204  0.80109189     0.14900
H876        H  0.22088688  0.89969626  0.87776819     0.28100
H877        H  0.28943936  0.90370825  0.87827056     0.28100
N878        N  0.25483996  0.60356744  0.84361265    -0.34600
N879        N  0.19320712  0.61488803  0.87509224    -0.55200
N880        N  0.25305411  0.62170876  0.90833046    -0.34600
N881        N  0.31474916  0.61290039  0.87637968    -0.55200
C882        C  0.22305278  0.60915737  0.83070619     0.29000
C883        C  0.28767125  0.60727762  0.83143338     0.29000
C884        C  0.22055156  0.63387963  0.91892838     0.28900
C885        C  0.28499714  0.63396221  0.91948331     0.28900
C886        C  0.17031284  0.60491880  0.85828512     0.37600
C887        C  0.16949472  0.61420882  0.89239659     0.37600
C888        C  0.33842794  0.60162960  0.86021699     0.37600
C889        C  0.33744291  0.61296701  0.89416730     0.37600
C890        C  0.23583068  0.61629063  0.81002820    -0.19900
C891        C  0.27661507  0.61506778  0.81048098    -0.19900
C892        C  0.23193275  0.65329410  0.93730429    -0.19900
C893        C  0.27262607  0.65340030  0.93763983    -0.19900
C894        C  0.13178963  0.59799566  0.86493340    -0.21000
C895        C  0.13125981  0.60398226  0.88656595    -0.21000
C896        C  0.37643141  0.59447851  0.86777954    -0.21000
C897        C  0.37584850  0.60186599  0.88929726    -0.21000
C898        C  0.18297674  0.60516572  0.83685822    -0.16300
C899        C  0.32709098  0.60143777  0.83851076    -0.16300
C900        C  0.32490889  0.62663338  0.91420524    -0.16300
C901        C  0.18097511  0.62663229  0.91288100    -0.16300
H902        H  0.21764454  0.62132212  0.79601068     0.16600
H903        H  0.29591432  0.61904530  0.79687857     0.16600
H904        H  0.21292083  0.66608299  0.94924596     0.16600
H905        H  0.29098074  0.66623739  0.94991617     0.16600
H906        H  0.10651465  0.59028082  0.85516630     0.14900
H907        H  0.10551883  0.60185685  0.89676083     0.14900
H908        H  0.40213882  0.58591378  0.85865722     0.14900
H909        H  0.40096991  0.60002354  0.90004738     0.14900
H910        H  0.25408211  0.59303547  0.85918334     0.28100
H911        H  0.25335406  0.60291840  0.89541412     0.28100
C912        C  0.42203013  0.91071482  0.69851008     0.44400
N913        N  0.43417461  0.95856587  0.71921946     0.03300
C914        C  0.10317266  0.57308155  0.71777201    -0.04600
H915        H  0.12797171  0.92058312  0.72764995     0.08800
C916        C  0.05839442  0.93497115  0.80001313    -0.04900
Co917      Co  0.00688250  0.00140722  0.70527922     0.74200
N918        N  0.07750555  0.95810971  0.72165320    -0.24100
Co919      Co  0.07761520  0.00084146  0.74533798     0.74100
C920        C  0.09719422  0.91971522  0.79407213     0.44500
N921        N  0.45823015  0.95890410  0.78264239     0.02900
N922        N  0.07627875  0.95887890  0.76954486     0.03000
N923        N  0.05618999  0.57169996  0.69187782    -0.44900
H924        H  0.47609989  0.92380448  0.67760204     0.08800
N925        N  0.05041521  0.95870048  0.70640262     0.03300
N926        N  0.07616163  0.54295921  0.76901116     0.03100
C927        C  0.09682331  0.58333560  0.79262276     0.44700
N928        N  0.43163529  0.95887698  0.76711144    -0.23500
C929        C  0.45801261  0.57357402  0.69135832    -0.04500
N930        N  0.40853081  0.92990824  0.71580716    -0.44600
N931        N  0.10602429  0.56612072  0.77402000    -0.44900
C932        C  0.42246666  0.59288477  0.69876058     0.44400
N933        N  0.05087484  0.54354680  0.70612042     0.03300
N934        N  0.43151242  0.54299074  0.76694830    -0.23600
N935        N  0.46300944  0.95916421  0.70504131    -0.24100
N936        N  0.45817397  0.54294124  0.78243323     0.03000
H937        H  0.37315412  0.56776330  0.76449757     0.08800
H938        H  0.04378871  0.57005316  0.81434595     0.08900
N939        N  0.07790350  0.54354618  0.72139024    -0.24100
N940        N  0.04779096  0.95889077  0.78394552    -0.23700
N941        N  0.43441308  0.54418625  0.71923135     0.03300
C942        C  0.08687573  0.90990114  0.69879661     0.44700
C943        C  0.40199914  0.93495023  0.77264680    -0.05000
N944        N  0.04777688  0.54319988  0.78346888    -0.23700
H945        H  0.04387482  0.93342340  0.81536446     0.08900
N946        N  0.05504861  0.93047991  0.69236580    -0.44900
H947        H  0.37360446  0.93354662  0.76463028     0.08900
C948        C  0.41217124  0.58118795  0.79351268     0.44600
C949        C  0.45772913  0.93002086  0.69127264    -0.04500
Co950      Co  0.43216573  0.00115113  0.74303239     0.73800
N951        N  0.44762227  0.93650649  0.79895749    -0.44700
C952        C  0.08841111  0.59155467  0.69826666     0.44800
N953        N  0.40890970  0.57311214  0.71595686    -0.44600
Co954      Co  0.00302905  0.00100453  0.78337745     0.73900
C955        C  0.05824959  0.56789027  0.79901278    -0.05000
C956        C  0.10224320  0.92810019  0.71813684    -0.04500
N957        N  0.46322690  0.54390756  0.70503366    -0.24100
N958        N  0.10646665  0.93632904  0.77516217    -0.44800
H959        H  0.12888961  0.58010815  0.72733577     0.08800
C960        C  0.40162790  0.56654549  0.77245536    -0.04900
Cl961      Cl  0.00489955  0.00107840  0.74431210    -0.48000
C962        C  0.41263465  0.91997560  0.79375743     0.44600
H963        H  0.47621389  0.58003194  0.67760983     0.08800
N964        N  0.44736168  0.56490246  0.79871679    -0.44700
N965        N  0.25582277  0.62166993  0.15575829    -0.34600
N966        N  0.19555567  0.62212733  0.12204838    -0.55200
N967        N  0.25689074  0.62628746  0.09006031    -0.34600
N968        N  0.31726900  0.62239134  0.12340228    -0.55200
C969        C  0.22314780  0.61154897  0.16697292     0.29000
C970        C  0.28793226  0.61173054  0.16765897     0.29000
C971        C  0.22502115  0.62038749  0.07734195     0.28900
C972        C  0.28954931  0.62057876  0.07809107     0.28900
C973        C  0.17218419  0.62709289  0.13928882     0.37600
C974        C  0.17275219  0.62988445  0.10472738     0.37600
C975        C  0.34003561  0.62727626  0.14096579     0.37600
C976        C  0.34060488  0.63034228  0.10645097     0.37600
C977        C  0.23462538  0.59535362  0.18640643    -0.19900
C978        C  0.27550673  0.59545921  0.18683621    -0.19900
C979        C  0.23758080  0.61097704  0.05696150    -0.19900
C980        C  0.27837313  0.61110997  0.05743011    -0.19900
C981        C  0.13427629  0.63761515  0.13289583    -0.21000
C982        C  0.13464392  0.63945688  0.11102067    -0.21000
C983        C  0.37814676  0.63783169  0.13516095    -0.21000
C984        C  0.37849574  0.63987990  0.11329462    -0.21000
C985        C  0.18343447  0.61851240  0.16052030    -0.16300
C986        C  0.32792143  0.61875934  0.16198449    -0.16300
C987        C  0.32887464  0.62706242  0.08487150    -0.16300
C988        C  0.18518873  0.62635642  0.08330288    -0.16300
H989        H  0.21554300  0.58475563  0.19902028     0.16600
H990        H  0.29394800  0.58494234  0.19982950     0.16600
H991        H  0.21926761  0.60527650  0.04311613     0.16600
H992        H  0.29761909  0.60555491  0.04400233     0.16600
H993        H  0.10882564  0.64285022  0.14293958     0.14900
H994        H  0.10953380  0.64653481  0.10092430     0.14900
H995        H  0.40320798  0.64303628  0.14558151     0.14900
H996        H  0.40392037  0.64706733  0.10356182     0.14900
H997        H  0.25608792  0.63818664  0.14178686     0.28100
H998        H  0.25649585  0.63855671  0.10515418     0.28100
N999        N  0.25679592  0.87647796  0.15849495    -0.34600
N1000       N  0.19539774  0.86821727  0.12573755    -0.55200
N1001       N  0.25614948  0.86031850  0.09325515    -0.34600
N1002       N  0.31744714  0.87139224  0.12524466    -0.55200
C1003       C  0.22418877  0.88760057  0.16952562     0.29000
C1004       C  0.28910034  0.88911622  0.16936901     0.29000
C1005       C  0.22354444  0.86286252  0.08070371     0.28900
C1006       C  0.28813216  0.86362400  0.08041315     0.28900
C1007       C  0.17244306  0.86693300  0.14335174     0.37600
C1008       C  0.17215171  0.85759368  0.10914924     0.37600
C1009       C  0.34133531  0.87283402  0.14259094     0.37600
C1010       C  0.34090476  0.86278144  0.10843768     0.37600
C1011       C  0.23600928  0.90663672  0.18794866    -0.19900
C1012       C  0.27685869  0.90750238  0.18787573    -0.19900
C1013       C  0.23497424  0.86778232  0.05959655    -0.19900
C1014       C  0.27571071  0.86813377  0.05941180    -0.19900
C1015       C  0.13433250  0.85550435  0.13793579    -0.21000
C1016       C  0.13417098  0.84949438  0.11627940    -0.21000
C1017       C  0.38023621  0.86566302  0.13670823    -0.21000
C1018       C  0.37993997  0.85920346  0.11512562    -0.21000
C1019       C  0.18416322  0.88016547  0.16370244    -0.16300
C1020       C  0.32928634  0.88393581  0.16326658    -0.16300
C1021       C  0.32812105  0.86025526  0.08695157    -0.16300
C1022       C  0.18401016  0.85768021  0.08751272    -0.16300
H1023       H  0.21717358  0.91881936  0.20016022     0.16600
H1024       H  0.29541257  0.92057410  0.19999010     0.16600
H1025       H  0.21595754  0.87008963  0.04569352     0.16600
H1026       H  0.29409709  0.87092460  0.04536506     0.16600
H1027       H  0.10908057  0.85259006  0.14842878     0.14900
H1028       H  0.10878330  0.84094306  0.10681672     0.14900
H1029       H  0.40627027  0.86569630  0.14684484     0.14900
H1030       H  0.40568388  0.85329729  0.10541764     0.14900
H1031       H  0.25709275  0.85848569  0.14524884     0.28100
H1032       H  0.25662153  0.85189345  0.10917222     0.28100
C1033       C  0.15303084  0.60079393  0.82037815    -0.11300
C1034       C  0.12711468  0.59460583  0.80752546    -0.12900
C1035       C  0.35772462  0.59608029  0.82258894    -0.11300
C1036       C  0.38302919  0.59046849  0.80938620    -0.12900
C1037       C  0.12716657  0.90825770  0.80928644    -0.11300
C1038       C  0.15293915  0.90105977  0.82216299    -0.12900
C1039       C  0.38355166  0.90993721  0.80963631    -0.11300
C1040       C  0.35818706  0.90390026  0.82281877    -0.12900
C1041       C  0.15552555  0.63141387  0.06664294    -0.11300
C1042       C  0.12886574  0.64120569  0.05486220    -0.12900
C1043       C  0.38435945  0.64391012  0.05678625    -0.11300
C1044       C  0.35868245  0.63323891  0.06871427    -0.12900
C1045       C  0.12975137  0.84141975  0.05813784    -0.11300
C1046       C  0.15416599  0.85074362  0.07124601    -0.12900
C1047       C  0.38342166  0.84335957  0.05832519    -0.11300
C1048       C  0.35782163  0.85289647  0.07068710    -0.12900
C1049       C  0.12870768  0.84644694  0.94165917    -0.11300
C1050       C  0.15428277  0.85851080  0.92995363    -0.12900
C1051       C  0.38152491  0.85170954  0.94322125    -0.11300
C1052       C  0.35636054  0.86475243  0.93142803    -0.12900
C1053       C  0.12422676  0.64706453  0.93950733    -0.11300
C1054       C  0.15010642  0.63602920  0.92788925    -0.12900
C1055       C  0.35501294  0.63700035  0.92958976    -0.11300
C1056       C  0.38024116  0.64891900  0.94145254    -0.12900
C1057       C  0.38699419  0.90452969  0.19002239    -0.11300
C1058       C  0.36049358  0.89375933  0.17842807    -0.12900
C1059       C  0.12657137  0.90327532  0.18964004    -0.11300
C1060       C  0.15273953  0.89060786  0.17849551    -0.12900
C1061       C  0.38526712  0.60415344  0.19001269    -0.11300
C1062       C  0.35887110  0.61335509  0.17791999    -0.12900
C1063       C  0.12533482  0.60513613  0.18810350    -0.11300
C1064       C  0.15186068  0.61341527  0.17600236    -0.12900
C1065       C  0.10503254  0.62365299  0.68649302    -0.11300
C1066       C  0.11531202  0.65013001  0.67501211    -0.12900
C1067       C  0.10319688  0.87824830  0.68675105    -0.11300
C1068       C  0.11293226  0.85236762  0.67490689    -0.12900
C1069       C  0.39059747  0.64986555  0.67624464    -0.11300
C1070       C  0.40229252  0.62385840  0.68768327    -0.12900
C1071       C  0.40291094  0.87885261  0.68781062    -0.11300
C1072       C  0.39214042  0.85252947  0.67648133    -0.12900
C1073       C  0.36673938  0.65153508  0.56707972    -0.11300
C1074       C  0.35755805  0.62551287  0.55513046    -0.12900
C1075       C  0.35807144  0.87774832  0.55499018    -0.11300
C1076       C  0.36758680  0.85188376  0.56711030    -0.12900
C1077       C  0.16173863  0.62598281  0.55507140    -0.11300
C1078       C  0.15311238  0.65185353  0.56715984    -0.12900
C1079       C  0.15130746  0.85280653  0.56687663    -0.11300
C1080       C  0.15962333  0.87896618  0.55472876    -0.12900
C1081       C  0.12018367  0.65191732  0.32151332    -0.11300
C1082       C  0.11099165  0.62509980  0.31009212    -0.12900
C1083       C  0.11368909  0.88370499  0.30980823    -0.11300
C1084       C  0.12237196  0.85611620  0.32098760    -0.12900
C1085       C  0.16010648  0.62701153  0.44110935    -0.11300
C1086       C  0.14903552  0.65308850  0.42962581    -0.12900
C1087       C  0.14889224  0.85462086  0.42959145    -0.11300
C1088       C  0.15884096  0.88114533  0.44089622    -0.12900
C1089       C  0.39234032  0.65101023  0.32058132    -0.11300
C1090       C  0.40348343  0.62422632  0.30976438    -0.12900
C1091       C  0.39122348  0.85560799  0.32115843    -0.11300
C1092       C  0.40406363  0.88225042  0.31045097    -0.12900
C1093       C  0.36858753  0.65150181  0.42918186    -0.11300
C1094       C  0.35979166  0.62592252  0.44153616    -0.12900
C1095       C  0.35569268  0.87813595  0.44096696    -0.11300
C1096       C  0.36256594  0.85175963  0.42886209    -0.12900
N1097       N  0.87726991  0.25268702  0.34085427    -0.34600
N1098       N  0.87191906  0.31162217  0.37400865    -0.55200
N1099       N  0.86959661  0.25158951  0.40665577    -0.34600
N1100       N  0.87713036  0.19244348  0.37409627    -0.55200
C1101       C  0.88801458  0.28497129  0.32968582     0.29000
C1102       C  0.88904317  0.22119662  0.32958381     0.29000
C1103       C  0.87431918  0.28342231  0.41899600     0.28900
C1104       C  0.87737802  0.22004249  0.41900993     0.28900
C1105       C  0.86865199  0.33469252  0.35652014     0.37600
C1106       C  0.86255335  0.33393143  0.39096804     0.37600
C1107       C  0.87450024  0.16959591  0.35669236     0.37600
C1108       C  0.87067427  0.16904207  0.39117708     0.37600
C1109       C  0.90596544  0.27377325  0.31079432    -0.19900
C1110       C  0.90651140  0.23357855  0.31070242    -0.19900
C1111       C  0.88503502  0.27195259  0.43949699    -0.19900
C1112       C  0.88693142  0.23189602  0.43950981    -0.19900
C1113       C  0.85697317  0.37182126  0.36237379    -0.21000
C1114       C  0.85290285  0.37129473  0.38417281    -0.21000
C1115       C  0.86669600  0.13142159  0.36276024    -0.21000
C1116       C  0.86423616  0.13108320  0.38459811    -0.21000
C1117       C  0.88098674  0.32412168  0.33584909    -0.16300
C1118       C  0.88360039  0.18169626  0.33571916    -0.16300
C1119       C  0.87300855  0.18094257  0.41267233    -0.16300
C1120       C  0.86659261  0.32220538  0.41255283    -0.16300
H1121       H  0.91752854  0.29258684  0.29836223     0.16600
H1122       H  0.91869515  0.21554655  0.29822647     0.16600
H1123       H  0.89038498  0.29048588  0.45310798     0.16600
H1124       H  0.89401501  0.21355411  0.45312631     0.16600
H1125       H  0.85291406  0.39695787  0.35206784     0.14900
H1126       H  0.84510908  0.39599252  0.39394620     0.14900
H1127       H  0.86396938  0.10624748  0.35255451     0.14900
H1128       H  0.85911942  0.10563113  0.39449779     0.14900
H1129       H  0.85993930  0.25203789  0.35453110     0.28100
H1130       H  0.85687769  0.25116702  0.39154430     0.28100
N1131       N  0.63462499  0.31358104  0.37540849    -0.34600
N1132       N  0.63745546  0.25412106  0.40865289    -0.55200
N1133       N  0.63384213  0.19448029  0.37554970    -0.34600
N1134       N  0.62721804  0.25393718  0.34254745    -0.55200
C1135       C  0.63152500  0.33594544  0.39304065     0.29000
C1136       C  0.62573881  0.33634288  0.35836441     0.29000
C1137       C  0.62947516  0.17265010  0.39343883     0.28900
C1138       C  0.62315569  0.17210740  0.35881506     0.28900
C1139       C  0.64810822  0.28543235  0.42026798     0.37600
C1140       C  0.64821367  0.22251355  0.42023597     0.37600
C1141       C  0.62837412  0.28575802  0.32965905     0.37600
C1142       C  0.62778825  0.22222992  0.32979046     0.37600
C1143       C  0.62083103  0.37350132  0.38713571    -0.19900
C1144       C  0.61721247  0.37379678  0.36530514    -0.19900
C1145       C  0.61598163  0.13587306  0.38805437    -0.19900
C1146       C  0.61195607  0.13550863  0.36622299    -0.19900
C1147       C  0.66499191  0.27370177  0.43946117    -0.21000
C1148       C  0.66513024  0.23375345  0.43942587    -0.21000
C1149       C  0.62892103  0.27415927  0.30849085    -0.21000
C1150       C  0.62857389  0.23399622  0.30857494    -0.21000
C1151       C  0.64168038  0.32441516  0.41404359    -0.16300
C1152       C  0.62668895  0.32502415  0.33666954    -0.16300
C1153       C  0.62500986  0.18301319  0.33701134    -0.16300
C1154       C  0.64121478  0.18372311  0.41416112    -0.16300
H1155       H  0.61679823  0.39835022  0.39744420     0.16600
H1156       H  0.60956779  0.39899643  0.35566162     0.16600
H1157       H  0.61033002  0.11158478  0.39872293     0.16600
H1158       H  0.60230194  0.11086021  0.35687902     0.16600
H1159       H  0.67626953  0.29200457  0.45209297     0.14900
H1160       H  0.67640298  0.21512550  0.45207138     0.14900
H1161       H  0.62904200  0.29269672  0.29444269     0.14900
H1162       H  0.62830100  0.21559597  0.29461495     0.14900
H1163       H  0.64669384  0.28578080  0.37481774     0.28100
H1164       H  0.64825248  0.22117774  0.37465778     0.28100
C1165       C  0.67704601  0.41353629  0.45139547     0.44400
N1166       N  0.68872912  0.46110169  0.47225269     0.03300
C1167       C  0.85804073  0.07525776  0.47272119    -0.04600
H1168       H  0.88246461  0.42107585  0.48159033     0.08800
C1169       C  0.80368484  0.42885180  0.55055642    -0.04900
Co1170     Co  0.76231666  0.00337845  0.45904757     0.74200
N1171       N  0.83278592  0.45967007  0.47554097    -0.24100
Co1172     Co  0.83252392  0.00198645  0.49962220     0.74100
C1173       C  0.83935206  0.40929599  0.54365943     0.44500
N1174       N  0.71222132  0.45982648  0.53519252     0.02900
N1175       N  0.82926209  0.45861828  0.52331885     0.03000
N1176       N  0.81125246  0.07417136  0.44672715    -0.44900
H1177       H  0.73169715  0.42642449  0.43090767     0.08800
N1178       N  0.80567162  0.46057470  0.46027994     0.03300
N1179       N  0.82966308  0.04459240  0.52357979     0.03100
C1180       C  0.83967188  0.09329347  0.54409655     0.44700
N1181       N  0.68504320  0.46012795  0.51997835    -0.23500
C1182       C  0.71471364  0.07592511  0.44496849    -0.04500
N1183       N  0.66312410  0.43254947  0.46862061    -0.44600
N1184       N  0.85439160  0.07402747  0.52708123    -0.44900
C1185       C  0.67929272  0.09560463  0.45212390     0.44400
N1186       N  0.80635889  0.04536592  0.46057115     0.03300
N1187       N  0.68595074  0.04559325  0.52013055    -0.23600
N1188       N  0.71803973  0.46161695  0.45833140    -0.24100
N1189       N  0.71294770  0.04459900  0.53543185     0.03000
H1190       H  0.63615454  0.08399996  0.51406105     0.08800
H1191       H  0.78526985  0.07927766  0.56449197     0.08500
N1192       N  0.83325836  0.04516875  0.47592867    -0.24100
N1193       N  0.79964791  0.45888078  0.53703788    -0.23700
N1194       N  0.68967884  0.04653235  0.47248714     0.03300
C1195       C  0.84150588  0.41139179  0.45255323     0.44700
C1196       C  0.65986084  0.43042435  0.52356317    -0.05000
N1197       N  0.80026519  0.04371984  0.53742503    -0.23700
H1198       H  0.78464208  0.42229944  0.56395185     0.08900
N1199       N  0.80991793  0.43235332  0.44622018    -0.44900
H1200       H  0.63407476  0.42342153  0.51404792     0.08900
C1201       C  0.67706092  0.09375979  0.54309699     0.44600
C1202       C  0.71296817  0.43268215  0.44443211    -0.04500
Co1203     Co  0.68615381  0.00331551  0.49615835     0.73800
N1204       N  0.70724649  0.43137188  0.54923798    -0.44700
C1205       C  0.84295228  0.09432464  0.45346235     0.44800
N1206       N  0.66473696  0.07584207  0.46906525    -0.44600
Co1207     Co  0.75629066  0.00170322  0.53661558     0.73900
C1208       C  0.80435536  0.07316675  0.55109484    -0.05000
C1209       C  0.85711916  0.42929982  0.47195450    -0.04500
N1210       N  0.71900766  0.04608989  0.45859303    -0.24100
N1211       N  0.85425632  0.42931421  0.52684959    -0.44800
H1212       H  0.88351593  0.08240363  0.48243997     0.08800
C1213       C  0.66157707  0.07591210  0.52367362    -0.04900
Cl1214     Cl  0.75931924  0.00255291  0.49785251    -0.48000
C1215       C  0.67511448  0.41150954  0.54290207     0.44600
H1216       H  0.73347424  0.08229529  0.43142682     0.08800
N1217       N  0.70855608  0.07274597  0.54952269    -0.44700
N1218       N  0.87916289  0.19189636  0.62207699    -0.34600
N1219       N  0.88012286  0.25147459  0.65544185    -0.55200
N1220       N  0.87986957  0.31101269  0.62226412    -0.34600
N1221       N  0.87538668  0.25148531  0.58928323    -0.55200
C1222       C  0.87291282  0.16999908  0.63978914     0.29000
C1223       C  0.86898879  0.17003170  0.60498350     0.29000
C1224       C  0.87529694  0.33329893  0.63984590     0.28900
C1225       C  0.87053421  0.33332710  0.60505508     0.28900
C1226       C  0.88819630  0.21963746  0.66750776     0.37600
C1227       C  0.88889079  0.28272005  0.66761058     0.37600
C1228       C  0.87876810  0.22008908  0.57651561     0.37600
C1229       C  0.87892539  0.28324466  0.57659382     0.37600
C1230       C  0.85894051  0.13363707  0.63392417    -0.19900
C1231       C  0.85626962  0.13370252  0.61198950    -0.19900
C1232       C  0.86331027  0.37038299  0.63375005    -0.19900
C1233       C  0.86004841  0.37035314  0.61184478    -0.19900
C1234       C  0.90106941  0.23070602  0.68762393    -0.21000
C1235       C  0.90148972  0.27069269  0.68768915    -0.21000
C1236       C  0.88450408  0.23193735  0.55555569    -0.21000
C1237       C  0.88456357  0.27197092  0.55559976    -0.21000
C1238       C  0.88275796  0.18077191  0.66089615    -0.16300
C1239       C  0.87279368  0.18121435  0.58325011    -0.16300
C1240       C  0.87351676  0.32203996  0.58337105    -0.16300
C1241       C  0.88451666  0.32192155  0.66104173    -0.16300
H1242       H  0.85175333  0.10943906  0.64437650     0.16600
H1243       H  0.84655275  0.10950962  0.60231177     0.16600
H1244       H  0.85782200  0.39502878  0.64401097     0.16600
H1245       H  0.85161189  0.39509159  0.60202908     0.16600
H1246       H  0.90931389  0.21194664  0.70087490     0.14900
H1247       H  0.91017203  0.28881122  0.70097512     0.14900
H1248       H  0.88734116  0.21367531  0.54162917     0.14900
H1249       H  0.88752412  0.29064073  0.54170181     0.14900
H1250       H  0.89412610  0.21829357  0.62166536     0.28100
H1251       H  0.89311578  0.28377118  0.62188745     0.28100
N1252       N  0.63175452  0.31138206  0.62106831    -0.34600
N1253       N  0.64300176  0.25211348  0.58869589    -0.55200
N1254       N  0.63410872  0.19244167  0.62131909    -0.34600
N1255       N  0.62541483  0.25163973  0.65405430    -0.55200
C1256       C  0.64483274  0.33349694  0.60456012     0.29000
C1257       C  0.63434115  0.33321789  0.63893884     0.29000
C1258       C  0.64688431  0.17057020  0.60480494     0.28900
C1259       C  0.63721943  0.17040361  0.63925425     0.28900
C1260       C  0.64108898  0.28375852  0.57579718     0.37600
C1261       C  0.64172452  0.22063870  0.57588985     0.37600
C1262       C  0.61395416  0.28291772  0.66546998     0.37600
C1263       C  0.61537372  0.21983674  0.66564942     0.37600
C1264       C  0.65576374  0.36990318  0.61206115    -0.19900
C1265       C  0.64901261  0.36975602  0.63372735    -0.19900
C1266       C  0.65823055  0.13411537  0.61237387    -0.19900
C1267       C  0.65207698  0.13400443  0.63408903    -0.19900
C1268       C  0.63890604  0.27236090  0.55462941    -0.21000
C1269       C  0.63927452  0.23233684  0.55468919    -0.21000
C1270       C  0.59708973  0.27097418  0.68457516    -0.21000
C1271       C  0.59801790  0.23096004  0.68469652    -0.21000
C1272       C  0.64474869  0.32258689  0.58278377    -0.16300
C1273       C  0.62092885  0.32198365  0.65944398    -0.16300
C1274       C  0.62353686  0.18105930  0.65971900    -0.16300
C1275       C  0.64621338  0.18175861  0.58298695    -0.16300
H1276       H  0.66691983  0.39428740  0.60284474     0.16600
H1277       H  0.65392748  0.39395409  0.64439305     0.16600
H1278       H  0.66918278  0.10983667  0.60317247     0.16600
H1279       H  0.65727211  0.10964090  0.64480238     0.16600
H1280       H  0.63795384  0.29092868  0.54059838     0.14900
H1281       H  0.63867057  0.21398276  0.54071373     0.14900
H1282       H  0.58566293  0.28917013  0.69718471     0.14900
H1283       H  0.58739722  0.21223137  0.69741036     0.14900
H1284       H  0.61730404  0.28482177  0.61982788     0.28100
H1285       H  0.61935016  0.21889016  0.62006728     0.28100
C1286       C  0.92359434  0.09569491  0.29723123     0.44400
N1287       N  0.96216437  0.07499621  0.27292090     0.03300
C1288       C  0.95417250  0.40906434  0.21144300    -0.04600
H1289       H  0.98000961  0.37420851  0.28791200     0.08800
C1290       C  0.60767491  0.45125693  0.28954205    -0.04900
Co1291     Co  0.93526381  0.50127101  0.25283241     0.74200
N1292       N  0.96848857  0.43022965  0.27352468    -0.24100
Co1293     Co  0.51084785  0.43331152  0.24964251     0.74100
C1294       C  0.59400644  0.41288018  0.29698515     0.44500
N1295       N  0.57709679  0.05265769  0.27440961     0.02900
N1296       N  0.55459501  0.43389724  0.27280178     0.03000
N1297       N  0.90556118  0.45360414  0.21594374    -0.44900
H1298       H  0.88320086  0.04182327  0.29440596     0.08800
N1299       N  0.93974535  0.45602908  0.27565386     0.03300
N1300       N  0.55578424  0.43742980  0.22652596     0.03100
C1301       C  0.59959172  0.42509033  0.20271198     0.44700
N1302       N  0.54810146  0.07831801  0.27239175    -0.23500
C1303       C  0.90201110  0.04900735  0.21559044    -0.04500
N1304       N  0.95553195  0.10477956  0.28561794    -0.44600
N1305       N  0.56567494  0.41170050  0.21167686    -0.44900
C1306       C  0.91215714  0.08417062  0.20417536     0.44400
N1307       N  0.93521860  0.45917059  0.22938194     0.03300
N1308       N  0.54967546  0.07530869  0.22608436    -0.23600
N1309       N  0.93644389  0.04631822  0.27540151    -0.24100
N1310       N  0.57905659  0.05007899  0.22818792     0.03000
H1311       H  0.54283785  0.12655575  0.20599962     0.08800
H1312       H  0.63751339  0.47733004  0.21236132     0.08900
N1313       N  0.96440910  0.43388838  0.22711490    -0.24100
N1314       N  0.58084304  0.46224600  0.27462347    -0.23700
N1315       N  0.95820451  0.07167053  0.22681848     0.03300
C1316       C  0.92658518  0.41041235  0.29825798     0.44700
C1317       C  0.55354818  0.10721540  0.28617882    -0.05000
N1318       N  0.58232828  0.46547585  0.22825515    -0.23700
H1319       H  0.63493863  0.46635319  0.29320227     0.08900
N1320       N  0.91308782  0.44462555  0.29000891    -0.44900
H1321       H  0.53583759  0.13341603  0.28711851     0.08900
C1322       C  0.59806687  0.08727315  0.20280410     0.44600
C1323       C  0.91022374  0.05708121  0.29043789    -0.04500
Co1324     Co  0.50454328  0.07562606  0.24916477     0.73800
N1325       N  0.60389491  0.06378413  0.28878178    -0.44700
C1326       C  0.91527151  0.42282886  0.20399954     0.44800
N1327       N  0.94701225  0.09752402  0.21205300    -0.44600
Co1328     Co  0.58052045  0.50761825  0.25176832     0.73900
C1329       C  0.61071328  0.46027731  0.21375728    -0.05000
C1330       C  0.96288370  0.40084204  0.28727154    -0.04500
N1331       N  0.93180502  0.04364670  0.22931927    -0.24100
N1332       N  0.56132445  0.40428750  0.28584454    -0.44800
H1333       H  0.97040188  0.38322719  0.20696745     0.08800
C1334       C  0.55928578  0.10063255  0.21036396    -0.04900
Cl1335     Cl  0.50780954  0.50445925  0.25089025    -0.48000
C1336       C  0.59001419  0.09761114  0.29703326     0.44600
H1337       H  0.87519607  0.03185227  0.21484362     0.08800
N1338       N  0.60825954  0.05617947  0.21462606    -0.44700
C1339       C  0.91186036  0.33045583  0.95449559     0.44400
N1340       N  0.96162377  0.31748297  0.97459952     0.03300
C1341       C  0.57556952  0.14922427  0.97138532    -0.04600
H1342       H  0.92346252  0.12526633  0.98211934     0.08800
C1343       C  0.93454927  0.19888700  0.05246542    -0.04900
Co1344     Co  0.50345119  0.24544083  0.96005235     0.74200
N1345       N  0.96020416  0.17579404  0.97643845    -0.24100
Co1346     Co  0.50434508  0.17446918  0.99977410     0.74100
C1347       C  0.91513483  0.16364095  0.04544823     0.44500
N1348       N  0.96384707  0.29091825  0.03726386     0.02900
N1349       N  0.96210488  0.17646450  0.02392648     0.03000
N1350       N  0.57342607  0.19628468  0.94582630    -0.44900
H1351       H  0.92348601  0.27759024  0.93320168     0.08800
N1352       N  0.95991786  0.20292882  0.96139126     0.03300
N1353       N  0.54856160  0.17504159  0.02327236     0.03100
C1354       C  0.59622040  0.16056006  0.04442968     0.44700
N1355       N  0.96347072  0.31834908  0.02236866    -0.23500
C1356       C  0.57685931  0.29253471  0.94570612    -0.04500
N1357       N  0.93278601  0.34328757  0.97148018    -0.44600
N1358       N  0.57654330  0.14850129  0.02685605    -0.44900
C1359       C  0.59745212  0.32699697  0.95298794     0.44400
N1360       N  0.54588283  0.20165080  0.96046451     0.03300
N1361       N  0.55040160  0.31688664  0.02165890    -0.23600
N1362       N  0.96093110  0.28921744  0.96041108    -0.24100
N1363       N  0.55022934  0.28934457  0.03648455     0.03000
H1364       H  0.58803882  0.36715449  0.01673356     0.08800
H1365       H  0.58459932  0.21360000  0.06556558     0.08900
N1366       N  0.54640080  0.17459026  0.97555660    -0.24100
N1367       N  0.96314308  0.20468293  0.03812198    -0.23700
N1368       N  0.54864480  0.31600000  0.97383794     0.03300
C1369       C  0.91067159  0.16669978  0.95388232     0.44700
C1370       C  0.93351613  0.34307080  0.02648512    -0.05000
N1371       N  0.54893217  0.20317625  0.03753990    -0.23700
H1372       H  0.92926581  0.21625248  0.06651284     0.08900
N1373       N  0.93090109  0.19832662  0.94740883    -0.44900
H1374       H  0.92610204  0.36893165  0.01735162     0.08900
C1375       C  0.60000943  0.32455085  0.04466852     0.44600
C1376       C  0.93058561  0.29511383  0.94697374    -0.04500
Co1377     Co  0.50607028  0.31837237  0.99810096     0.73800
N1378       N  0.93553669  0.29535285  0.05160113    -0.44700
C1379       C  0.59327814  0.16404651  0.95181828     0.44800
N1380       N  0.57830853  0.34057801  0.97032856    -0.44600
Co1381     Co  0.50653834  0.24712662  0.03768700     0.73900
C1382       C  0.57802983  0.19636382  0.05161192    -0.05000
C1383       C  0.93003148  0.15123484  0.97293155    -0.04500
N1384       N  0.54723065  0.28783563  0.95959980    -0.24100
N1385       N  0.93366571  0.15078151  0.02780866    -0.44800
H1386       H  0.58257340  0.12328647  0.98054442     0.08800
C1387       C  0.58095864  0.34096506  0.02561625    -0.04900
Cl1388     Cl  0.50512386  0.24636676  0.99889806    -0.48000
C1389       C  0.91506697  0.32734808  0.04577260     0.44600
H1390       H  0.58252149  0.27463631  0.93190732     0.08800
N1391       N  0.57917005  0.29301865  0.05057471    -0.44700
N1392       N  0.69495099  0.38359413  0.87622607    -0.34600
N1393       N  0.75540576  0.37650837  0.90901668    -0.55200
N1394       N  0.81637997  0.38913765  0.87716375    -0.34600
N1395       N  0.75572550  0.39386858  0.84397464    -0.55200
C1396       C  0.67328526  0.36865785  0.89246146     0.29000
C1397       C  0.67322967  0.38002487  0.85815631     0.29000
C1398       C  0.83840632  0.37564349  0.89375062     0.28900
C1399       C  0.83857005  0.38561319  0.85931459     0.28900
C1400       C  0.72301867  0.37618966  0.92161522     0.37600
C1401       C  0.78712406  0.37927552  0.92211695     0.37600
C1402       C  0.72346194  0.40387958  0.83229792     0.37600
C1403       C  0.78765781  0.40550241  0.83263849     0.37600
C1404       C  0.63724606  0.35547852  0.88457264    -0.19900
C1405       C  0.63715367  0.36283677  0.86293256    -0.19900
C1406       C  0.87521469  0.36388606  0.88634747    -0.19900
C1407       C  0.87532897  0.37025892  0.86463212    -0.19900
C1408       C  0.73417712  0.37907384  0.94287054    -0.21000
C1409       C  0.77484329  0.38103339  0.94318798    -0.21000
C1410       C  0.73496192  0.42161583  0.81335916    -0.21000
C1411       C  0.77567421  0.42256403  0.81355395    -0.21000
C1412       C  0.68414089  0.36896209  0.91431438    -0.16300
C1413       C  0.68403858  0.39467867  0.83787613    -0.16300
C1414       C  0.82735464  0.39826074  0.83864667    -0.16300
C1415       C  0.82674823  0.37502371  0.91544665    -0.16300
H1416       H  0.61319174  0.34252384  0.89351642     0.16600
H1417       H  0.61310313  0.35663945  0.85200178     0.16600
H1418       H  0.89958372  0.35206533  0.89562144     0.16600
H1419       H  0.89975107  0.36436101  0.85397794     0.16600
H1420       H  0.71510202  0.37852724  0.95672236     0.14900
H1421       H  0.79330880  0.38221728  0.95733038     0.14900
H1422       H  0.71602734  0.43229636  0.80061946     0.14900
H1423       H  0.79431823  0.43416222  0.80101151     0.14900
H1424       H  0.72089258  0.39962192  0.87772801     0.28100
H1425       H  0.78944522  0.40370231  0.87823769     0.28100
N1426       N  0.75480946  0.10353432  0.84360359    -0.34600
N1427       N  0.69319475  0.11482349  0.87509132    -0.55200
N1428       N  0.75304759  0.12170334  0.90830585    -0.34600
N1429       N  0.81472290  0.11286121  0.87635782    -0.55200
C1430       C  0.72301884  0.10918909  0.83070857     0.29000
C1431       C  0.78763522  0.10730619  0.83142581     0.29000
C1432       C  0.72054950  0.13392511  0.91889052     0.28900
C1433       C  0.78499529  0.13402263  0.91943287     0.28900
C1434       C  0.67030287  0.10483191  0.85828893     0.37600
C1435       C  0.66949616  0.11411254  0.89240001     0.37600
C1436       C  0.83838265  0.10154446  0.86019813     0.37600
C1437       C  0.83741276  0.11288856  0.89414600     0.37600
C1438       C  0.73578815  0.11643237  0.81004013    -0.19900
C1439       C  0.77657376  0.11520749  0.81048668    -0.19900
C1440       C  0.73193816  0.15346144  0.93722537    -0.19900
C1441       C  0.77263361  0.15357854  0.93755232    -0.19900
C1442       C  0.63179433  0.09785027  0.86494449    -0.21000
C1443       C  0.63127191  0.10383037  0.88657858    -0.21000
C1444       C  0.87636989  0.09431641  0.86776286    -0.21000
C1445       C  0.87579691  0.10170860  0.88928072    -0.21000
C1446       C  0.68294960  0.10515132  0.83686077    -0.16300
C1447       C  0.82705124  0.10141605  0.83849277    -0.16300
C1448       C  0.82489932  0.12661406  0.91417370    -0.16300
C1449       C  0.68097441  0.12659692  0.91287205    -0.16300
H1450       H  0.71759536  0.12153713  0.79603279     0.16600
H1451       H  0.79587024  0.11925640  0.79688925     0.16600
H1452       H  0.71292940  0.16631603  0.94914714     0.16600
H1453       H  0.79099653  0.16649024  0.94980118     0.16600
H1454       H  0.60652173  0.09011526  0.85518039     0.14900
H1455       H  0.60553980  0.10168118  0.89677854     0.14900
H1456       H  0.90206263  0.08570705  0.85864116     0.14900
H1457       H  0.90091305  0.09982731  0.90003253     0.14900
H1458       H  0.75405710  0.09292135  0.85915929     0.28100
H1459       H  0.75334362  0.10282277  0.89542789     0.28100
C1460       C  0.92199312  0.41065007  0.69851854     0.44400
N1461       N  0.93416656  0.45850144  0.71922268     0.03300
C1462       C  0.60319933  0.07313814  0.71781008    -0.04600
H1463       H  0.62800934  0.42056352  0.72763694     0.08800
C1464       C  0.55842482  0.43492749  0.79999265    -0.04900
Co1465     Co  0.50687091  0.50131787  0.70526787     0.74200
N1466       N  0.57751040  0.45805019  0.72164617    -0.24100
Co1467     Co  0.57762618  0.50080222  0.74531934     0.74100
C1468       C  0.59720639  0.41964494  0.79403592     0.44500
N1469       N  0.95826169  0.45887155  0.78264033     0.02900
N1470       N  0.57630460  0.45885581  0.76952983     0.03000
N1471       N  0.55622048  0.07179776  0.69191436    -0.44900
H1472       H  0.97605901  0.42371389  0.67760241     0.08800
N1473       N  0.55040382  0.45861025  0.70640373     0.03300
N1474       N  0.57614124  0.04297366  0.76903424     0.03100
C1475       C  0.59678200  0.08336943  0.79263819     0.44700
N1476       N  0.93166782  0.45883317  0.76710905    -0.23500
C1477       C  0.95801210  0.07366015  0.69138342    -0.04500
N1478       N  0.90850865  0.42985394  0.71581531    -0.44600
N1479       N  0.60599105  0.06615214  0.77403817    -0.44900
C1480       C  0.92244569  0.09294107  0.69877993     0.44400
N1481       N  0.55088936  0.04363462  0.70614982     0.03300
N1482       N  0.93150153  0.04302877  0.76695222    -0.23600
N1483       N  0.96299749  0.45908167  0.70504260    -0.24100
N1484       N  0.95815477  0.04297280  0.78244081     0.03000
H1485       H  0.87316040  0.06783159  0.76448486     0.08800
H1486       H  0.54375209  0.07007470  0.81436408     0.08900
N1487       N  0.57791663  0.04360794  0.72142026    -0.24100
N1488       N  0.54782640  0.45887233  0.78393539    -0.23700
N1489       N  0.93441046  0.04424349  0.71924557     0.03300
C1490       C  0.58687809  0.40981520  0.69880621     0.44700
C1491       C  0.90205590  0.43487239  0.77263542    -0.05000
N1492       N  0.54775564  0.04320837  0.78349086    -0.23700
H1493       H  0.54390684  0.43335890  0.81534380     0.08900
N1494       N  0.55503613  0.43037358  0.69237656    -0.44900
H1495       H  0.87366865  0.43344049  0.76461294     0.08900
C1496       C  0.91216251  0.08124381  0.79350698     0.44600
C1497       C  0.95769913  0.42993770  0.69127628    -0.04500
Co1498     Co  0.93217399  0.50110187  0.74302825     0.73800
N1499       N  0.94766925  0.43645287  0.79895038    -0.44700
C1500       C  0.58844773  0.09163950  0.69830841     0.44800
N1501       N  0.90888692  0.07315006  0.71596852    -0.44600
Co1502     Co  0.50305618  0.50098119  0.78336748     0.73900
C1503       C  0.55821783  0.06790677  0.79903244    -0.05000
C1504       C  0.60225990  0.42804906  0.71813288    -0.04500
N1505       N  0.96323602  0.04399092  0.70505507    -0.24100
N1506       N  0.60647847  0.43627551  0.77513079    -0.44800
H1507       H  0.62892515  0.08013781  0.72737315     0.08800
C1508       C  0.90162725  0.06660131  0.77244940    -0.04900
Cl1509     Cl  0.50490783  0.50103186  0.74430138    -0.48000
C1510       C  0.91269652  0.41989378  0.79374375     0.44600
H1511       H  0.97620764  0.08012477  0.67763366     0.08800
N1512       N  0.94734311  0.06494510  0.79871977    -0.44700
N1513       N  0.75584434  0.12167580  0.15575478    -0.34600
N1514       N  0.69556593  0.12232092  0.12205745    -0.55200
N1515       N  0.75687660  0.12657558  0.09005914    -0.34600
N1516       N  0.81727776  0.12251815  0.12338706    -0.55200
C1517       C  0.72317130  0.11156367  0.16697686     0.29000
C1518       C  0.78796353  0.11172784  0.16764762     0.29000
C1519       C  0.72500246  0.12071090  0.07734086     0.28900
C1520       C  0.78952066  0.12087786  0.07807897     0.28900
C1521       C  0.67216626  0.12710365  0.13930180     0.37600
C1522       C  0.67273122  0.13003917  0.10474405     0.37600
C1523       C  0.84007921  0.12726693  0.14094824     0.37600
C1524       C  0.84061329  0.13047339  0.10643716     0.37600
C1525       C  0.73466345  0.09538031  0.18641080    -0.19900
C1526       C  0.77554507  0.09547380  0.18683076    -0.19900
C1527       C  0.73754416  0.11136231  0.05694867    -0.19900
C1528       C  0.77833048  0.11147850  0.05741041    -0.19900
C1529       C  0.63421046  0.13748053  0.13291649    -0.21000
C1530       C  0.63457743  0.13941597  0.11104440    -0.21000
C1531       C  0.87821374  0.13774486  0.13514158    -0.21000
C1532       C  0.87853891  0.13988651  0.11327713    -0.21000
C1533       C  0.68344214  0.11848228  0.16052561    -0.16300
C1534       C  0.82795991  0.11871788  0.16196327    -0.16300
C1535       C  0.82885520  0.12726830  0.08486016    -0.16300
C1536       C  0.68517105  0.12659100  0.08331758    -0.16300
H1537       H  0.71559017  0.08478748  0.19902985     0.16600
H1538       H  0.79399169  0.08495294  0.19982096     0.16600
H1539       H  0.71922268  0.10569089  0.04310279     0.16600
H1540       H  0.79756385  0.10593975  0.04397533     0.16600
H1541       H  0.60872460  0.14254223  0.14296148     0.14900
H1542       H  0.60943272  0.14640017  0.10095363     0.14900
H1543       H  0.90330552  0.14283490  0.14555845     0.14900
H1544       H  0.90397115  0.14703946  0.10354222     0.14900
H1545       H  0.75610591  0.13818102  0.14178072     0.28100
H1546       H  0.75649652  0.13878612  0.10516782     0.28100
N1547       N  0.75684604  0.37637851  0.15851175    -0.34600
N1548       N  0.69539949  0.36835616  0.12573697    -0.55200
N1549       N  0.75615115  0.36054247  0.09323809    -0.34600
N1550       N  0.81749428  0.37142600  0.12524824    -0.55200
C1551       C  0.72425295  0.38734151  0.16960230     0.29000
C1552       C  0.78916977  0.38881377  0.16944227     0.29000
C1553       C  0.72354479  0.36302928  0.08068136     0.28900
C1554       C  0.78814391  0.36374834  0.08039417     0.28900
C1555       C  0.67242722  0.36710661  0.14334599     0.37600
C1556       C  0.67211233  0.35790837  0.10912927     0.37600
C1557       C  0.84140370  0.37286228  0.14258646     0.37600
C1558       C  0.84094724  0.36293718  0.10842073     0.37600
C1559       C  0.73610406  0.40602985  0.18812791    -0.19900
C1560       C  0.77695176  0.40686928  0.18805196    -0.19900
C1561       C  0.73498641  0.36781863  0.05956785    -0.19900
C1562       C  0.77572497  0.36814510  0.05938542    -0.19900
C1563       C  0.63425944  0.35590035  0.13790387    -0.21000
C1564       C  0.63408308  0.34997888  0.11624178    -0.21000
C1565       C  0.88031575  0.36582246  0.13667704    -0.21000
C1566       C  0.88000311  0.35943918  0.11508865    -0.21000
C1567       C  0.68420649  0.38010237  0.16373680    -0.16300
C1568       C  0.82935467  0.38377728  0.16329402    -0.16300
C1569       C  0.82813994  0.36039981  0.08693731    -0.16300
C1570       C  0.68399361  0.35792708  0.08749400    -0.16300
H1571       H  0.71728953  0.41800743  0.20040987     0.16600
H1572       H  0.79551942  0.41971128  0.20023479     0.16600
H1573       H  0.71597574  0.37005599  0.04565937     0.16600
H1574       H  0.79411395  0.37084065  0.04533442     0.16600
H1575       H  0.60898562  0.35305028  0.14838659     0.14900
H1576       H  0.60865850  0.34157921  0.10676627     0.14900
H1577       H  0.90636486  0.36586969  0.14680245     0.14900
H1578       H  0.90574915  0.35362411  0.10536554     0.14900
H1579       H  0.75711602  0.35863242  0.14517073     0.28100
H1580       H  0.75661632  0.35222713  0.10916644     0.28100
C1581       C  0.65299775  0.10081835  0.82038395    -0.11300
C1582       C  0.62707188  0.09464632  0.80753654    -0.12900
C1583       C  0.85768309  0.09609261  0.82256872    -0.11300
C1584       C  0.88300349  0.09050753  0.80937244    -0.12900
C1585       C  0.62718168  0.40814604  0.80923767    -0.11300
C1586       C  0.65295768  0.40094358  0.82211064    -0.12900
C1587       C  0.88360291  0.40984023  0.80961493    -0.11300
C1588       C  0.85821514  0.40381173  0.82278621    -0.12900
C1589       C  0.65548724  0.13154080  0.06666547    -0.11300
C1590       C  0.62880330  0.14122224  0.05487947    -0.12900
C1591       C  0.88431638  0.14397154  0.05674845    -0.11300
C1592       C  0.85865737  0.13336775  0.06869914    -0.12900
C1593       C  0.62968378  0.34155660  0.05815715    -0.11300
C1594       C  0.65413698  0.35094844  0.07123324    -0.12900
C1595       C  0.88347170  0.34345622  0.05833715    -0.11300
C1596       C  0.85784543  0.35302131  0.07067715    -0.12900
C1597       C  0.62864219  0.34642991  0.94160839    -0.11300
C1598       C  0.65425121  0.35846722  0.92991431    -0.12900
C1599       C  0.88155226  0.35171826  0.94318613    -0.11300
C1600       C  0.85636268  0.36475109  0.93140269    -0.12900
C1601       C  0.62423228  0.14701678  0.93950687    -0.11300
C1602       C  0.65011077  0.13598724  0.92788533    -0.12900
C1603       C  0.85501373  0.13694255  0.92956046    -0.11300
C1604       C  0.88027314  0.14881560  0.94141856    -0.12900
C1605       C  0.88706862  0.40435204  0.19004779    -0.11300
C1606       C  0.86057019  0.39356368  0.17845797    -0.12900
C1607       C  0.62665913  0.40315589  0.18971440    -0.11300
C1608       C  0.65281151  0.39049843  0.17855685    -0.12900
C1609       C  0.88525819  0.10411632  0.19002487    -0.11300
C1610       C  0.85890513  0.11328592  0.17789836    -0.12900
C1611       C  0.62530738  0.10501172  0.18808060    -0.11300
C1612       C  0.65186553  0.11330176  0.17600068    -0.12900
C1613       C  0.60513927  0.12367797  0.68650847    -0.11300
C1614       C  0.61543622  0.15011924  0.67500417    -0.12900
C1615       C  0.60324808  0.37820804  0.68674459    -0.11300
C1616       C  0.61300290  0.35235165  0.67488959    -0.12900
C1617       C  0.89051361  0.14981949  0.67622082    -0.11300
C1618       C  0.90221767  0.12384403  0.68767622    -0.12900
C1619       C  0.90285907  0.37879032  0.68782519    -0.11300
C1620       C  0.89208910  0.35246725  0.67649621    -0.12900
C1621       C  0.86678743  0.15154377  0.56705657    -0.11300
C1622       C  0.85758162  0.12551318  0.55511584    -0.12900
C1623       C  0.85805286  0.37773316  0.55500365    -0.11300
C1624       C  0.86761283  0.35187552  0.56712037    -0.12900
C1625       C  0.66165916  0.12593512  0.55505925    -0.11300
C1626       C  0.65304560  0.15184583  0.56712682    -0.12900
C1627       C  0.65117412  0.35282133  0.56684502    -0.11300
C1628       C  0.65950563  0.37903092  0.55473267    -0.12900
C1629       C  0.62030411  0.15196273  0.32146992    -0.11300
C1630       C  0.61111595  0.12513435  0.31005319    -0.12900
C1631       C  0.61371427  0.38379816  0.30981045    -0.11300
C1632       C  0.62240219  0.35617902  0.32096196    -0.12900
C1633       C  0.66018602  0.12703815  0.44105586    -0.11300
C1634       C  0.64914767  0.15314903  0.42958027    -0.12900
C1635       C  0.64869266  0.35474031  0.42958027    -0.11300
C1636       C  0.65870760  0.38125438  0.44087974    -0.12900
C1637       C  0.89223476  0.15115373  0.32052318    -0.11300
C1638       C  0.90331607  0.12438035  0.30968021    -0.12900
C1639       C  0.89122377  0.35572205  0.32118751    -0.11300
C1640       C  0.90405407  0.38236527  0.31047788    -0.12900
C1641       C  0.86858154  0.15149389  0.42915403    -0.11300
C1642       C  0.85979099  0.12588042  0.44148913    -0.12900
C1643       C  0.85571479  0.37817583  0.44098389    -0.11300
C1644       C  0.86258345  0.35178329  0.42888996    -0.12900
N1645       N  0.87725427  0.75257702  0.34084163    -0.34600
N1646       N  0.87196272  0.81154579  0.37398851    -0.55200
N1647       N  0.86961054  0.75155660  0.40664959    -0.34600
N1648       N  0.87709694  0.69238218  0.37410763    -0.55200
C1649       C  0.88798061  0.78484662  0.32965635     0.29000
C1650       C  0.88899352  0.72106957  0.32957541     0.29000
C1651       C  0.87436680  0.78339965  0.41897635     0.28900
C1652       C  0.87742886  0.72002400  0.41900621     0.28900
C1653       C  0.86865868  0.83458722  0.35649031     0.37600
C1654       C  0.86253398  0.83385769  0.39093773     0.37600
C1655       C  0.87441191  0.66952462  0.35671053     0.37600
C1656       C  0.87058662  0.66901278  0.39119506     0.37600
C1657       C  0.90586238  0.77362312  0.31075003    -0.19900
C1658       C  0.90639955  0.73342632  0.31067177    -0.19900
C1659       C  0.88514638  0.77195347  0.43947149    -0.19900
C1660       C  0.88704708  0.73189676  0.43949423    -0.19900
C1661       C  0.85690105  0.87170021  0.36232806    -0.21000
C1662       C  0.85280645  0.87119093  0.38412665    -0.21000
C1663       C  0.86650080  0.63137754  0.36278845    -0.21000
C1664       C  0.86403710  0.63106636  0.38462695    -0.21000
C1665       C  0.88099348  0.82400424  0.33582038    -0.16300
C1666       C  0.88357964  0.68157772  0.33573859    -0.16300
C1667       C  0.87300393  0.68092430  0.41268537    -0.16300
C1668       C  0.86659280  0.82216649  0.41252704    -0.16300
H1669       H  0.91738595  0.79242059  0.29829982     0.16600
H1670       H  0.91853412  0.71537732  0.29818927     0.16600
H1671       H  0.89052893  0.79050163  0.45307264     0.16600
H1672       H  0.89416403  0.71356750  0.45311083     0.16600
H1673       H  0.85278632  0.89681195  0.35201017     0.14900
H1674       H  0.84494216  0.89588060  0.39388981     0.14900
H1675       H  0.86370809  0.60620271  0.35258829     0.14900
H1676       H  0.85885420  0.60563785  0.39453454     0.14900
H1677       H  0.85997097  0.75195059  0.35453572     0.28100
H1678       H  0.85683078  0.75111945  0.39155239     0.28100
N1679       N  0.63481160  0.81350846  0.37541719    -0.34600
N1680       N  0.63758328  0.75403860  0.40866337    -0.55200
N1681       N  0.63367564  0.69441697  0.37559079    -0.34600
N1682       N  0.62714069  0.75389033  0.34258305    -0.55200
C1683       C  0.63166382  0.83583401  0.39306054     0.29000
C1684       C  0.62574101  0.83625292  0.35839303     0.29000
C1685       C  0.62936113  0.67256817  0.39347617     0.28900
C1686       C  0.62303199  0.67203995  0.35885267     0.28900
C1687       C  0.64839337  0.78532641  0.42025180     0.37600
C1688       C  0.64827311  0.72241477  0.42024860     0.37600
C1689       C  0.62845131  0.78570238  0.32969161     0.37600
C1690       C  0.62778549  0.72217488  0.32983316     0.37600
C1691       C  0.62076820  0.87334807  0.38718409    -0.19900
C1692       C  0.61705763  0.87365547  0.36535630    -0.19900
C1693       C  0.61593729  0.63576822  0.38808538    -0.19900
C1694       C  0.61190944  0.63541184  0.36625352    -0.19900
C1695       C  0.66533595  0.77357266  0.43942562    -0.21000
C1696       C  0.66532080  0.73362455  0.43941154    -0.21000
C1697       C  0.62918052  0.77409372  0.30852823    -0.21000
C1698       C  0.62878332  0.73393035  0.30861862    -0.21000
C1699       C  0.64193204  0.82430522  0.41404540    -0.16300
C1700       C  0.62670583  0.82496698  0.33669546    -0.16300
C1701       C  0.62491186  0.68296170  0.33705203    -0.16300
C1702       C  0.64112385  0.68364292  0.41419420    -0.16300
H1703       H  0.61664908  0.89815909  0.39750995     0.16600
H1704       H  0.60924916  0.89882646  0.35572814     0.16600
H1705       H  0.61036180  0.61145229  0.39874716     0.16600
H1706       H  0.60233124  0.61074190  0.35690408     0.16600
H1707       H  0.67671824  0.79185943  0.45203750     0.14900
H1708       H  0.67657810  0.71497764  0.45205287     0.14900
H1709       H  0.62946209  0.79262520  0.29447885     0.14900
H1710       H  0.62863325  0.71552189  0.29466166     0.14900
H1711       H  0.64705126  0.78577850  0.37480429     0.28100
H1712       H  0.64803225  0.72113761  0.37469793     0.28100
C1713       C  0.67711427  0.91346343  0.45139658     0.44400
N1714       N  0.68874115  0.96106143  0.47223583     0.03300
C1715       C  0.85802498  0.57531181  0.47276815    -0.04600
H1716       H  0.88245333  0.92102071  0.48157693     0.08800
C1717       C  0.80371374  0.92886848  0.55054909    -0.04900
Co1718     Co  0.76231573  0.50342273  0.45906695     0.74200
N1719       N  0.83278311  0.95962822  0.47552828    -0.24100
Co1720     Co  0.83252162  0.50200438  0.49964228     0.74100
C1721       C  0.83938029  0.90931653  0.54365251     0.44500
N1722       N  0.71225514  0.95978740  0.53516877     0.02900
N1723       N  0.82927822  0.95861988  0.52330431     0.03000
N1724       N  0.81123515  0.57424900  0.44677504    -0.44900
H1725       H  0.73175449  0.92636936  0.43090815     0.08800
N1726       N  0.80566009  0.96052475  0.46027177     0.03300
N1727       N  0.82966769  0.54459539  0.52360110     0.03100
C1728       C  0.83965998  0.59330222  0.54411198     0.44700
N1729       N  0.68506928  0.96007446  0.51995808    -0.23500
C1730       C  0.71470295  0.57599609  0.44501819    -0.04500
N1731       N  0.66316605  0.93247896  0.46861463    -0.44600
N1732       N  0.85438451  0.57404164  0.52709674    -0.44900
C1733       C  0.67926994  0.59564555  0.45218353     0.44400
N1734       N  0.80635620  0.54541634  0.46060317     0.03300
N1735       N  0.68597556  0.54563901  0.52014519    -0.23600
N1736       N  0.71805235  0.96158245  0.45831620    -0.24100
N1737       N  0.71297922  0.54464065  0.53544262     0.03000
H1738       H  0.63622037  0.58409217  0.51406436     0.08800
H1739       H  0.78527592  0.57926957  0.56451506     0.08500
N1740       N  0.83325728  0.54520551  0.47595993    -0.24100
N1741       N  0.79966785  0.95888672  0.53702505    -0.23700
N1742       N  0.68967536  0.54655271  0.47251864     0.03300
C1743       C  0.84146119  0.91131312  0.45255460     0.44700
C1744       C  0.65993409  0.93032621  0.52353600    -0.05000
N1745       N  0.80027589  0.54371383  0.53744867    -0.23700
H1746       H  0.78467465  0.92231804  0.56394626     0.08900
N1747       N  0.80988205  0.93228446  0.44622173    -0.44900
H1748       H  0.63415415  0.92329602  0.51402202     0.08900
C1749       C  0.67716507  0.59386278  0.54308309     0.44600
C1750       C  0.71301163  0.93263236  0.44442619    -0.04500
Co1751     Co  0.68615406  0.50335151  0.49617911     0.73800
N1752       N  0.70733254  0.93130590  0.54920227    -0.44700
C1753       C  0.84292213  0.59440875  0.45352177     0.44800
N1754       N  0.66471771  0.57584922  0.46910986    -0.44600
Co1755     Co  0.75628859  0.50171682  0.53663398     0.73900
C1756       C  0.80435993  0.57316159  0.55111702    -0.05000
C1757       C  0.85710129  0.92924238  0.47194561    -0.04500
N1758       N  0.71900580  0.54613732  0.45862623    -0.24100
N1759       N  0.85427878  0.92932267  0.52683779    -0.44800
H1760       H  0.88349752  0.58245282  0.48249023     0.08800
C1761       C  0.66164058  0.57599262  0.52367582    -0.04900
Cl1762     Cl  0.75931892  0.50257513  0.49787133    -0.48000
C1763       C  0.67523342  0.91140047  0.54286374     0.44600
H1764       H  0.73345667  0.58239400  0.43147761     0.08800
N1765       N  0.70863310  0.57282036  0.54951702    -0.44700
N1766       N  0.87912567  0.69192160  0.62209480    -0.34600
N1767       N  0.88012612  0.75151831  0.65545084    -0.55200
N1768       N  0.87983300  0.81104815  0.62226217    -0.34600
N1769       N  0.87527211  0.75150082  0.58929038    -0.55200
C1770       C  0.87296807  0.67000682  0.63981015     0.29000
C1771       C  0.86899082  0.67002901  0.60500528     0.29000
C1772       C  0.87533055  0.83335682  0.63984029     0.28900
C1773       C  0.87051040  0.83336338  0.60505176     0.28900
C1774       C  0.88816051  0.71968650  0.66753053     0.37600
C1775       C  0.88885933  0.78277403  0.66762026     0.37600
C1776       C  0.87862050  0.72010059  0.57652394     0.37600
C1777       C  0.87877725  0.78325213  0.57659256     0.37600
C1778       C  0.85909940  0.63360292  0.63394957    -0.19900
C1779       C  0.85639572  0.63366132  0.61201649    -0.19900
C1780       C  0.86340383  0.87045791  0.63373945    -0.19900
C1781       C  0.86010286  0.87041377  0.61183618    -0.19900
C1782       C  0.90095799  0.73077086  0.68765769    -0.21000
C1783       C  0.90138343  0.77075764  0.68771427    -0.21000
C1784       C  0.88428488  0.73193863  0.55555636    -0.21000
C1785       C  0.88434429  0.77196915  0.55559442    -0.21000
C1786       C  0.88279222  0.68080815  0.66091713    -0.16300
C1787       C  0.87272061  0.68122262  0.58326928    -0.16300
C1788       C  0.87344096  0.82205530  0.58336941    -0.16300
C1789       C  0.88453874  0.82197748  0.66103813    -0.16300
H1790       H  0.85200067  0.60938154  0.64440355     0.16600
H1791       H  0.84674067  0.60943890  0.60234307     0.16600
H1792       H  0.85797539  0.89512301  0.64399565     0.16600
H1793       H  0.85169316  0.89515779  0.60201790     0.16600
H1794       H  0.90915862  0.71202126  0.70092057     0.14900
H1795       H  0.91002457  0.78888364  0.70100485     0.14900
H1796       H  0.88709052  0.71367130  0.54163003     0.14900
H1797       H  0.88727194  0.79063089  0.54169111     0.14900
H1798       H  0.89400702  0.71836040  0.62167612     0.28100
H1799       H  0.89302800  0.78378406  0.62188600     0.28100
N1800       N  0.63180602  0.81138726  0.62110064    -0.34600
N1801       N  0.64311822  0.75211698  0.58873507    -0.55200
N1802       N  0.63411810  0.69244580  0.62134402    -0.34600
N1803       N  0.62537728  0.75164544  0.65408060    -0.55200
C1804       C  0.64492280  0.83350085  0.60460069     0.29000
C1805       C  0.63434736  0.83322421  0.63897242     0.29000
C1806       C  0.64688406  0.67056043  0.60483382     0.28900
C1807       C  0.63716089  0.67039603  0.63927668     0.28900
C1808       C  0.64123767  0.78376292  0.57583664     0.37600
C1809       C  0.64183567  0.72064787  0.57592556     0.37600
C1810       C  0.61388673  0.78292386  0.66548773     0.37600
C1811       C  0.61529161  0.71984130  0.66566329     0.37600
C1812       C  0.65583436  0.86990758  0.61210759    -0.19900
C1813       C  0.64903008  0.86976261  0.63376951    -0.19900
C1814       C  0.65815192  0.63408224  0.61240157    -0.19900
C1815       C  0.65196386  0.63397295  0.63411334    -0.19900
C1816       C  0.63908109  0.77237106  0.55466731    -0.21000
C1817       C  0.63942423  0.73235014  0.55472480    -0.21000
C1818       C  0.59695912  0.77097907  0.68457631    -0.21000
C1819       C  0.59787846  0.73096382  0.68469535    -0.21000
C1820       C  0.64487923  0.82258942  0.58282466    -0.16300
C1821       C  0.62088293  0.82199045  0.65946819    -0.16300
C1822       C  0.62345053  0.68106198  0.65973355    -0.16300
C1823       C  0.64627151  0.68176334  0.58301913    -0.16300
H1824       H  0.66700933  0.89429056  0.60289689     0.16600
H1825       H  0.65391572  0.89396307  0.64443746     0.16600
H1826       H  0.66907122  0.60978786  0.60320124     0.16600
H1827       H  0.65709329  0.60959279  0.64482444     0.16600
H1828       H  0.63815261  0.79094038  0.54063659     0.14900
H1829       H  0.63882070  0.71399987  0.54074786     0.14900
H1830       H  0.58549098  0.78917481  0.69717509     0.14900
H1831       H  0.58720701  0.71223329  0.69739592     0.14900
H1832       H  0.61735520  0.78483016  0.61985027     0.28100
H1833       H  0.61940556  0.71891611  0.62008904     0.28100
C1834       C  0.92376885  0.59554995  0.29731392     0.44400
N1835       N  0.96216646  0.57499247  0.27288635     0.03300
C1836       C  0.95410294  0.90913782  0.21143134    -0.04600
H1837       H  0.98001517  0.87412387  0.28785332     0.08800
C1838       C  0.60768865  0.95116909  0.28951498    -0.04900
Co1839     Co  0.93525346  0.00127665  0.25287355     0.74200
N1840       N  0.96850110  0.93018940  0.27351728    -0.24100
Co1841     Co  0.51082175  0.93330546  0.24962252     0.74100
C1842       C  0.59404040  0.91276653  0.29693161     0.44500
N1843       N  0.57707877  0.55268479  0.27439690     0.02900
N1844       N  0.55460405  0.93383241  0.27276958     0.03000
N1845       N  0.90551111  0.95368426  0.21596830    -0.44900
H1846       H  0.88336232  0.54168488  0.29447986     0.08800
N1847       N  0.93976277  0.95598950  0.27567092     0.03300
N1848       N  0.55573188  0.93746189  0.22649450     0.03100
C1849       C  0.59950091  0.92517241  0.20265023     0.44700
N1850       N  0.54808049  0.57833770  0.27237450    -0.23500
C1851       C  0.90211787  0.54892189  0.21547767    -0.04500
N1852       N  0.95563211  0.60469537  0.28565417    -0.44600
N1853       N  0.56559622  0.91176758  0.21162229    -0.44900
C1854       C  0.91225926  0.58409753  0.20406801     0.44400
N1855       N  0.93518171  0.95921564  0.22940287     0.03300
N1856       N  0.54969484  0.57532919  0.22607448    -0.23600
N1857       N  0.93645031  0.54631323  0.27535952    -0.24100
N1858       N  0.57906994  0.55008880  0.22817084     0.03000
H1859       H  0.54290293  0.62665123  0.20604533     0.08800
H1860       H  0.63744443  0.97738213  0.21232146     0.08900
N1861       N  0.96436439  0.93393192  0.22711305    -0.24100
N1862       N  0.58084489  0.96218591  0.27460729    -0.23700
N1863       N  0.95822920  0.57166158  0.22677178     0.03300
C1864       C  0.92659965  0.91030568  0.29823457     0.44700
C1865       C  0.55347720  0.60720334  0.28618624    -0.05000
N1866       N  0.58228546  0.96549573  0.22823467    -0.23700
H1867       H  0.63494386  0.96627097  0.29318652     0.08900
N1868       N  0.91310592  0.94454523  0.29001688    -0.44900
H1869       H  0.53574725  0.63338993  0.28713543     0.08900
C1870       C  0.59811502  0.58736101  0.20282919     0.44600
C1871       C  0.91033476  0.55698904  0.29046603    -0.04500
Co1872     Co  0.50454922  0.57563777  0.24914103     0.73800
N1873       N  0.60383210  0.56378419  0.28879832    -0.44700
C1874       C  0.91519962  0.92292748  0.20400510     0.44800
N1875       N  0.94705781  0.59749896  0.21199340    -0.44600
Co1876     Co  0.58050909  0.00759817  0.25177115     0.73900
C1877       C  0.61064319  0.96033110  0.21371721    -0.05000
C1878       C  0.96289547  0.90076295  0.28723903    -0.04500
N1879       N  0.93185365  0.54361045  0.22925049    -0.24100
N1880       N  0.56135340  0.90419073  0.28578944    -0.44800
H1881       H  0.97031883  0.88330308  0.20693808     0.08800
C1882       C  0.55932928  0.60070051  0.21038329    -0.04900
Cl1883     Cl  0.50779396  0.00445278  0.25090767    -0.48000
C1884       C  0.58991434  0.59758365  0.29706383     0.44600
H1885       H  0.87531754  0.53174811  0.21470935     0.08800
N1886       N  0.60829271  0.55622669  0.21462514    -0.44700
C1887       C  0.91179583  0.83042545  0.95454138     0.44400
N1888       N  0.96162135  0.81751140  0.97461137     0.03300
C1889       C  0.57557842  0.64928028  0.97138342    -0.04600
H1890       H  0.92339867  0.62537023  0.98215427     0.08800
C1891       C  0.93459094  0.69885559  0.05251013    -0.04900
Co1892     Co  0.50347642  0.74549869  0.96004997     0.74200
N1893       N  0.96018469  0.67585710  0.97645434    -0.24100
Co1894     Co  0.50437040  0.67452405  0.99977796     0.74100
C1895       C  0.91517656  0.66360049  0.04549708     0.44500
N1896       N  0.96385284  0.79090500  0.03726567     0.02900
N1897       N  0.96210621  0.67647224  0.02394838     0.03000
N1898       N  0.57341784  0.69631868  0.94581286    -0.44900
H1899       H  0.92344369  0.77758418  0.93323455     0.08800
N1900       N  0.95990385  0.70298865  0.96140499     0.03300
N1901       N  0.54861415  0.67509848  0.02326937     0.03100
C1902       C  0.59634342  0.66065179  0.04439619     0.44700
N1903       N  0.96346744  0.81834252  0.02237398    -0.23500
C1904       C  0.57697178  0.79252561  0.94574718    -0.04500
N1905       N  0.93274444  0.84328065  0.97151251    -0.44600
N1906       N  0.57663025  0.64858430  0.02683487    -0.44900
C1907       C  0.59759206  0.82695740  0.95305105     0.44400
N1908       N  0.54588951  0.70170010  0.96045745     0.03300
N1909       N  0.55042257  0.81691105  0.02165153    -0.23600
N1910       N  0.96093541  0.78925388  0.96041952    -0.24100
N1911       N  0.55023548  0.78936394  0.03647308     0.03000
H1912       H  0.58816428  0.86709694  0.01670047     0.08800
H1913       H  0.58468928  0.71366196  0.06555308     0.08900
N1914       N  0.54641468  0.67465009  0.97555481    -0.24100
N1915       N  0.96315609  0.70467885  0.03814968    -0.23700
N1916       N  0.54867961  0.81604156  0.97384260     0.03300
C1917       C  0.91059749  0.66681645  0.95392536     0.44700
C1918       C  0.93346750  0.84301984  0.02647668    -0.05000
N1919       N  0.54898137  0.70322427  0.03754151    -0.23700
H1920       H  0.92932905  0.71620674  0.06656550     0.08900
N1921       N  0.93085567  0.69841664  0.94743826    -0.44900
H1922       H  0.92602516  0.86886798  0.01733879     0.08900
C1923       C  0.60010118  0.82446335  0.04462783     0.44600
C1924       C  0.93055490  0.79511579  0.94700187    -0.04500
Co1925     Co  0.50609005  0.81841574  0.99809896     0.73800
N1926       N  0.93550771  0.79529266  0.05158619    -0.44700
C1927       C  0.59326878  0.66408253  0.95180820     0.44800
N1928       N  0.57839201  0.84057609  0.97036407    -0.44600
Co1929     Co  0.50655872  0.74715661  0.03768624     0.73900
C1930       C  0.57811715  0.69643211  0.05159723    -0.05000
C1931       C  0.92997816  0.65133233  0.97296348    -0.04500
N1932       N  0.54727752  0.78787561  0.95960543    -0.24100
N1933       N  0.93368402  0.65077395  0.02784142    -0.44800
H1934       H  0.58258791  0.62334958  0.98054714     0.08800
C1935       C  0.58103735  0.84092912  0.02559143    -0.04900
Cl1936     Cl  0.50514522  0.74641257  0.99889717    -0.48000
C1937       C  0.91500016  0.82725814  0.04575045     0.44600
H1938       H  0.58266971  0.77461021  0.93195935     0.08800
N1939       N  0.57921438  0.79297336  0.05054209    -0.44700
N1940       N  0.69496736  0.88363340  0.87625442    -0.34600
N1941       N  0.75542739  0.87654482  0.90903949    -0.55200
N1942       N  0.81637745  0.88915370  0.87718555    -0.34600
N1943       N  0.75571204  0.89393949  0.84400272    -0.55200
C1944       C  0.67331800  0.86867416  0.89248902     0.29000
C1945       C  0.67324267  0.88006322  0.85818607     0.29000
C1946       C  0.83840937  0.87564565  0.89376638     0.28900
C1947       C  0.83855755  0.88564636  0.85933297     0.28900
C1948       C  0.72304480  0.87625147  0.92163924     0.37600
C1949       C  0.78714700  0.87931823  0.92213674     0.37600
C1950       C  0.72344552  0.90399648  0.83234032     0.37600
C1951       C  0.78764067  0.90561914  0.83267884     0.37600
C1952       C  0.63728911  0.85546706  0.88460067    -0.19900
C1953       C  0.63718409  0.86283944  0.86296122    -0.19900
C1954       C  0.87521217  0.86388741  0.88635587    -0.19900
C1955       C  0.87531699  0.87028052  0.86464115    -0.19900
C1956       C  0.73420642  0.87916158  0.94289320    -0.21000
C1957       C  0.77487275  0.88110832  0.94320798    -0.21000
C1958       C  0.73493890  0.92180953  0.81342217    -0.21000
C1959       C  0.77565203  0.92275896  0.81361580    -0.21000
C1960       C  0.68417228  0.86900242  0.91434160    -0.16300
C1961       C  0.68402727  0.89476872  0.83791352    -0.16300
C1962       C  0.82733685  0.89834552  0.83867533    -0.16300
C1963       C  0.82676266  0.87503568  0.91546368    -0.16300
H1964       H  0.61324572  0.84249526  0.89354558     0.16600
H1965       H  0.61313305  0.85663830  0.85203148     0.16600
H1966       H  0.89958667  0.85206589  0.89562546     0.16600
H1967       H  0.89973706  0.86440081  0.85398256     0.16600
H1968       H  0.71513362  0.87863446  0.95674608     0.14900
H1969       H  0.79334187  0.88230203  0.95734878     0.14900
H1970       H  0.71599957  0.93254229  0.80069758     0.14900
H1971       H  0.79429347  0.93441028  0.80108685     0.14900
H1972       H  0.72089165  0.89969112  0.87775926     0.28100
H1973       H  0.78945036  0.90373109  0.87826624     0.28100
N1974       N  0.75483699  0.60356133  0.84361008    -0.34600
N1975       N  0.69320518  0.61486188  0.87509209    -0.55200
N1976       N  0.75305222  0.62167073  0.90833045    -0.34600
N1977       N  0.81474635  0.61287924  0.87637721    -0.55200
C1978       C  0.72304949  0.60916785  0.83070603     0.29000
C1979       C  0.78766750  0.60728678  0.83143159     0.29000
C1980       C  0.72054927  0.63383668  0.91893007     0.28900
C1981       C  0.78499533  0.63392202  0.91948424     0.28900
C1982       C  0.67031073  0.60490234  0.85828346     0.37600
C1983       C  0.66949289  0.61417407  0.89239621     0.37600
C1984       C  0.83842544  0.60161880  0.86021238     0.37600
C1985       C  0.83744128  0.61294097  0.89416441     0.37600
C1986       C  0.73582631  0.61632785  0.81003056    -0.19900
C1987       C  0.77661054  0.61510374  0.81048226    -0.19900
C1988       C  0.73193042  0.65324429  0.93730812    -0.19900
C1989       C  0.77262382  0.65335222  0.93764319    -0.19900
C1990       C  0.63178766  0.59797449  0.86493057    -0.21000
C1991       C  0.63125791  0.60394990  0.88656412    -0.21000
C1992       C  0.87643014  0.59446837  0.86777317    -0.21000
C1993       C  0.87584783  0.60184646  0.88929198    -0.21000
C1994       C  0.68297396  0.60516806  0.83685671    -0.16300
C1995       C  0.82708757  0.60143987  0.83850620    -0.16300
C1996       C  0.82490781  0.62660002  0.91420405    -0.16300
C1997       C  0.68097242  0.62659369  0.91288124    -0.16300
H1998       H  0.71763938  0.62137867  0.79601535     0.16600
H1999       H  0.79590933  0.61909983  0.79688125     0.16600
H2000       H  0.71291848  0.66602811  0.94925143     0.16600
H2001       H  0.79097829  0.66618586  0.94992069     0.16600
H2002       H  0.60651239  0.59026650  0.85516202     0.14900
H2003       H  0.60551670  0.60182077  0.89675862     0.14900
H2004       H  0.90213813  0.58591203  0.85864897     0.14900
H2005       H  0.90097045  0.60000324  0.90004123     0.14900
H2006       H  0.75407975  0.59300937  0.85917749     0.28100
H2007       H  0.75335271  0.60288739  0.89541147     0.28100
C2008       C  0.92202413  0.91071940  0.69851155     0.44400
N2009       N  0.93417407  0.95856726  0.71922203     0.03300
C2010       C  0.60317989  0.57307139  0.71776893    -0.04600
H2011       H  0.62797076  0.92058220  0.72765022     0.08800
C2012       C  0.55838468  0.93496011  0.80000882    -0.04900
Co2013     Co  0.50688372  0.00140676  0.70527730     0.74200
N2014       N  0.57750589  0.95810970  0.72165166    -0.24100
Co2015     Co  0.57761149  0.00083954  0.74533749     0.74100
C2016       C  0.59718320  0.91970085  0.79406633     0.44500
N2017       N  0.95823887  0.95890337  0.78264382     0.02900
N2018       N  0.57627061  0.95887374  0.76954240     0.03000
N2019       N  0.55619182  0.57169268  0.69187759    -0.44900
H2020       H  0.97609250  0.92380836  0.67760211     0.08800
N2021       N  0.55041752  0.95870099  0.70640019     0.03300
N2022       N  0.57616853  0.54295637  0.76901143     0.03100
C2023       C  0.59682609  0.58334128  0.79261965     0.44700
N2024       N  0.93164521  0.95887456  0.76711234    -0.23500
C2025       C  0.95801213  0.57357308  0.69135507    -0.04500
N2026       N  0.90852854  0.92991107  0.71580997    -0.44600
N2027       N  0.60602912  0.56612196  0.77401832    -0.44900
C2028       C  0.92246487  0.59288202  0.69875681     0.44400
N2029       N  0.55087603  0.54354172  0.70612141     0.03300
N2030       N  0.93150537  0.54299174  0.76694355    -0.23600
N2031       N  0.96300717  0.95916578  0.70504305    -0.24100
N2032       N  0.95816566  0.54294410  0.78242913     0.03000
H2033       H  0.87315046  0.56777142  0.76448845     0.08800
H2034       H  0.54379282  0.57006001  0.81434408     0.08900
N2035       N  0.57790744  0.54353970  0.72138983    -0.24100
N2036       N  0.54778327  0.95888592  0.78394338    -0.23700
N2037       N  0.93441111  0.54418302  0.71922709     0.03300
C2038       C  0.58687993  0.90990247  0.69879456     0.44700
C2039       C  0.90201230  0.93494319  0.77264551    -0.05000
N2040       N  0.54778424  0.54319795  0.78346945    -0.23700
H2041       H  0.54386449  0.93340835  0.81535989     0.08900
N2042       N  0.55505321  0.93048128  0.69236293    -0.44900
H2043       H  0.87361837  0.93353804  0.76462828     0.08900
C2044       C  0.91216497  0.58119829  0.79350461     0.44600
C2045       C  0.95772341  0.93002443  0.69127342    -0.04500
Co2046     Co  0.93216927  0.00115053  0.74303538     0.73800
N2047       N  0.94763148  0.93650362  0.79895805    -0.44700
C2048       C  0.58841693  0.59154408  0.69826364     0.44800
N2049       N  0.90890719  0.57310822  0.71595239    -0.44600
Co2050     Co  0.50302223  0.00100302  0.78337579     0.73900
C2051       C  0.55825458  0.56789328  0.79901131    -0.05000
C2052       C  0.60224424  0.92810048  0.71813578    -0.04500
N2053       N  0.96322620  0.54390620  0.70503018    -0.24100
N2054       N  0.60645520  0.93631776  0.77515717    -0.44800
H2055       H  0.62890014  0.58009544  0.72733073     0.08800
C2056       C  0.90162257  0.56655113  0.77244791    -0.04900
Cl2057     Cl  0.50489622  0.00107740  0.74431037    -0.48000
C2058       C  0.91264584  0.91997008  0.79375633     0.44600
H2059       H  0.97621463  0.58003253  0.67760726     0.08800
N2060       N  0.94735393  0.56491107  0.79871052    -0.44700
N2061       N  0.75581945  0.62172200  0.15576675    -0.34600
N2062       N  0.69555363  0.62216038  0.12205488    -0.55200
N2063       N  0.75688675  0.62632067  0.09006984    -0.34600
N2064       N  0.81726262  0.62243431  0.12341178    -0.55200
C2065       C  0.72314666  0.61157028  0.16697520     0.29000
C2066       C  0.78792968  0.61176558  0.16766310     0.29000
C2067       C  0.72501799  0.62040916  0.07735252     0.28900
C2068       C  0.78954500  0.62058788  0.07810368     0.28900
C2069       C  0.67217766  0.62710854  0.13929461     0.37600
C2070       C  0.67274515  0.62990283  0.10473420     0.37600
C2071       C  0.84002950  0.62732647  0.14097414     0.37600
C2072       C  0.84060057  0.63037071  0.10645982     0.37600
C2073       C  0.73462630  0.59534033  0.18639953    -0.19900
C2074       C  0.77550686  0.59545466  0.18683049    -0.19900
C2075       C  0.73757728  0.61096899  0.05697650    -0.19900
C2076       C  0.77836920  0.61109210  0.05744664    -0.19900
C2077       C  0.63426181  0.63760385  0.13290163    -0.21000
C2078       C  0.63462902  0.63944686  0.11102669    -0.21000
C2079       C  0.87814189  0.63787572  0.13516839    -0.21000
C2080       C  0.87849244  0.63990890  0.11330180    -0.21000
C2081       C  0.68343178  0.61852580  0.16052445    -0.16300
C2082       C  0.82791813  0.61880004  0.16199122    -0.16300
C2083       C  0.82887077  0.62707270  0.08488189    -0.16300
C2084       C  0.68518584  0.62638238  0.08331076    -0.16300
H2085       H  0.71554531  0.58470722  0.19900518     0.16600
H2086       H  0.79394968  0.58491073  0.19981660     0.16600
H2087       H  0.71926386  0.60524893  0.04313374     0.16600
H2088       H  0.79761570  0.60551045  0.04402247     0.16600
H2089       H  0.60880584  0.64281659  0.14294504     0.14900
H2090       H  0.60951328  0.64650343  0.10092994     0.14900
H2091       H  0.90320403  0.64307954  0.14558848     0.14900
H2092       H  0.90391911  0.64708383  0.10356785     0.14900
H2093       H  0.75608180  0.63826000  0.14180254     0.28100
H2094       H  0.75649208  0.63860976  0.10515909     0.28100
N2095       N  0.75679364  0.87646867  0.15849907    -0.34600
N2096       N  0.69538653  0.86825909  0.12573710    -0.55200
N2097       N  0.75615081  0.86038375  0.09325357    -0.34600
N2098       N  0.81745593  0.87141848  0.12524953    -0.55200
C2099       C  0.72418663  0.88754979  0.16954247     0.29000
C2100       C  0.78909885  0.88906278  0.16938815     0.29000
C2101       C  0.72354690  0.86287506  0.08069772     0.28900
C2102       C  0.78813789  0.86363107  0.08040993     0.28900
C2103       C  0.67243036  0.86696388  0.14335064     0.37600
C2104       C  0.67213885  0.85765955  0.10914454     0.37600
C2105       C  0.84134707  0.87287879  0.14259401     0.37600
C2106       C  0.84091972  0.86285829  0.10843717     0.37600
C2107       C  0.73600840  0.90650965  0.18798916    -0.19900
C2108       C  0.77685702  0.90737317  0.18791768    -0.19900
C2109       C  0.73498298  0.86770451  0.05958552    -0.19900
C2110       C  0.77571918  0.86805162  0.05940265    -0.19900
C2111       C  0.63431476  0.85555923  0.13792956    -0.21000
C2112       C  0.63415282  0.84957232  0.11627131    -0.21000
C2113       C  0.88025780  0.86577713  0.13670410    -0.21000
C2114       C  0.87996384  0.85933879  0.11511973    -0.21000
C2115       C  0.68415887  0.88014504  0.16371067    -0.16300
C2116       C  0.82928676  0.88391791  0.16327871    -0.16300
C2117       C  0.82812967  0.86029511  0.08695279    -0.16300
C2118       C  0.68400730  0.85772224  0.08750877    -0.16300
H2119       H  0.71717418  0.91864190  0.20021648     0.16600
H2120       H  0.79541027  0.92039397  0.20004899     0.16600
H2121       H  0.71597105  0.86995008  0.04567783     0.16600
H2122       H  0.79410695  0.87077840  0.04535292     0.16600
H2123       H  0.60906237  0.85263585  0.14842152     0.14900
H2124       H  0.60876427  0.84103154  0.10680637     0.14900
H2125       H  0.90629586  0.86583705  0.14683760     0.14900
H2126       H  0.90571367  0.85347796  0.10540789     0.14900
H2127       H  0.75708919  0.85852888  0.14523257     0.28100
H2128       H  0.75661862  0.85203574  0.10918029     0.28100
C2129       C  0.65302919  0.60080682  0.82037548    -0.11300
C2130       C  0.62711527  0.59461910  0.80752159    -0.12900
C2131       C  0.85771937  0.59609120  0.82258203    -0.11300
C2132       C  0.88302205  0.59048191  0.80937762    -0.12900
C2133       C  0.62715882  0.90824623  0.80927987    -0.11300
C2134       C  0.65293654  0.90105466  0.82215480    -0.12900
C2135       C  0.88355657  0.90994414  0.80963323    -0.11300
C2136       C  0.85818527  0.90391836  0.82281286    -0.12900
C2137       C  0.65552760  0.63144388  0.06664943    -0.11300
C2138       C  0.62887303  0.64124025  0.05486693    -0.12900
C2139       C  0.88435182  0.64390764  0.05679395    -0.11300
C2140       C  0.85867757  0.63323688  0.06872343    -0.12900
C2141       C  0.62975163  0.84143677  0.05813564    -0.11300
C2142       C  0.65416422  0.85077056  0.07124290    -0.12900
C2143       C  0.88343099  0.84336314  0.05833332    -0.11300
C2144       C  0.85783284  0.85291727  0.07069219    -0.12900
C2145       C  0.62873064  0.84643057  0.94165435    -0.11300
C2146       C  0.65430032  0.85849575  0.92994571    -0.12900
C2147       C  0.88152357  0.85170228  0.94321669    -0.11300
C2148       C  0.85636647  0.86474784  0.93141935    -0.12900
C2149       C  0.62422126  0.64704530  0.93950094    -0.11300
C2150       C  0.65010204  0.63599928  0.92788670    -0.12900
C2151       C  0.85501323  0.63697047  0.92958747    -0.11300
C2152       C  0.88024210  0.64889403  0.94144865    -0.12900
C2153       C  0.88698264  0.90449016  0.19004510    -0.11300
C2154       C  0.86048719  0.89372088  0.17844773    -0.12900
C2155       C  0.62657630  0.90323507  0.18965773    -0.11300
C2156       C  0.65273948  0.89056714  0.17851037    -0.12900
C2157       C  0.88527123  0.60413881  0.19000562    -0.11300
C2158       C  0.85887035  0.61336552  0.17792189    -0.12900
C2159       C  0.62533423  0.60511716  0.18810294    -0.11300
C2160       C  0.65186059  0.61340689  0.17600492    -0.12900
C2161       C  0.60503680  0.62364260  0.68648912    -0.11300
C2162       C  0.61531490  0.65012064  0.67500831    -0.12900
C2163       C  0.60319956  0.87824526  0.68675145    -0.11300
C2164       C  0.61293695  0.85236171  0.67490953    -0.12900
C2165       C  0.89059131  0.64986248  0.67624279    -0.11300
C2166       C  0.90228968  0.62385489  0.68767987    -0.12900
C2167       C  0.90290654  0.87885274  0.68781526    -0.11300
C2168       C  0.89213485  0.85252722  0.67648799    -0.12900
C2169       C  0.86673700  0.65154652  0.56707925    -0.11300
C2170       C  0.85755583  0.62552209  0.55513157    -0.12900
C2171       C  0.85806627  0.87774798  0.55499319    -0.11300
C2172       C  0.86758593  0.85189017  0.56711639    -0.12900
C2173       C  0.66173628  0.62599085  0.55506854    -0.11300
C2174       C  0.65310962  0.65186387  0.56715532    -0.12900
C2175       C  0.65129817  0.85281558  0.56688097    -0.11300
C2176       C  0.65961264  0.87897643  0.55473384    -0.12900
C2177       C  0.62019403  0.65192583  0.32150691    -0.11300
C2178       C  0.61099757  0.62510436  0.31008966    -0.12900
C2179       C  0.61369477  0.88371115  0.30980713    -0.11300
C2180       C  0.62238153  0.85612305  0.32098634    -0.12900
C2181       C  0.66008864  0.62700646  0.44110343    -0.11300
C2182       C  0.64901595  0.65308111  0.42961872    -0.12900
C2183       C  0.64890382  0.85461157  0.42959139    -0.11300
C2184       C  0.65884534  0.88113532  0.44089833    -0.12900
C2185       C  0.89231907  0.65099953  0.32058196    -0.11300
C2186       C  0.90347340  0.62422018  0.30976497    -0.12900
C2187       C  0.89124374  0.85559712  0.32115665    -0.11300
C2188       C  0.90407875  0.88224134  0.31044899    -0.12900
C2189       C  0.86859404  0.65150181  0.42918009    -0.11300
C2190       C  0.85979907  0.62592375  0.44153487    -0.12900
C2191       C  0.85568293  0.87812261  0.44096653    -0.11300
C2192       C  0.86255909  0.85175028  0.42885984    -0.12900
loop_ 
_geom_bond_atom_site_label_1 
_geom_bond_atom_site_label_2 
_geom_bond_distance 
_geom_bond_site_symmetry_2 
_ccdc_geom_bond_type 
N1            C6   1.356       .  A
N1            C5   1.357       .  A
N1           H33   1.039       .  S
N2            C9   1.351       .  A
N2           C10   1.352       .  A
N3            C8   1.352       .  A
N3            C7   1.352       .  A
N3           H34   1.038       .  S
N4           C11   1.350       .  A
N4           C12   1.352       .  A
C5           C13   1.388       .  A
C5           C21   1.421       .  A
C6           C22   1.419       .  A
C6           C14   1.388       .  A
C7           C15   1.387       .  A
C7           C24   1.412       .  A
C8           C23   1.410       .  A
C8           C16   1.387       .  A
C9           C21   1.411       .  A
C9           C17   1.386       .  A
C10          C24   1.414       .  A
C10          C18   1.387       .  A
C11          C19   1.388       .  A
C11          C22   1.410       .  A
C12          C20   1.387       .  A
C12          C23   1.412       .  A
C13          C14   1.380       .  A
C13          H25   1.082       .  S
C14          H26   1.083       .  S
C15          C16   1.377       .  A
C15          H27   1.082       .  S
C16          H28   1.082       .  S
C17          C18   1.373       .  A
C17          H29   1.082       .  S
C18          H30   1.082       .  S
C19          C20   1.371       .  A
C19          H31   1.083       .  S
C20          H32   1.082       .  S
C21         C543   1.459       .  S
C22         C541   1.451       .  S
C23         C545   1.448       .  S
C24         C548   1.453       .  S
N35          C40   1.351       .  A
N35          C39   1.354       .  A
N35          H67   1.038       .  S
N36          C43   1.351       .  A
N36          C44   1.350       .  A
N37          C42   1.352       .  A
N37          C41   1.352       .  A
N37          H68   1.040       .  S
N38          C45   1.355       .  A
N38          C46   1.355       .  A
C39          C47   1.386       .  A
C39          C55   1.412       .  A
C40          C56   1.416       .  A
C40          C48   1.391       .  A
C41          C49   1.386       .  A
C41          C58   1.411       .  A
C42          C57   1.415       .  A
C42          C50   1.390       .  A
C43          C55   1.408       .  A
C43          C51   1.386       .  A
C44          C58   1.408       .  A
C44          C52   1.386       .  A
C45          C53   1.387       .  A
C45          C56   1.422       .  A
C46          C54   1.386       .  A
C46          C57   1.421       .  A
C47          C48   1.372       .  A
C47          H59   1.082       .  S
C48          H60   1.082       .  S
C49          C50   1.374       .  A
C49          H61   1.083       .  S
C50          H62   1.082       .  S
C51          C52   1.372       .  A
C51          H63   1.082       .  S
C52          H64   1.082       .  S
C53          C54   1.379       .  A
C53          H65   1.082       .  S
C54          H66   1.082       .  S
C55         C539   1.449       .  S
C56         C536   1.455       .  S
C57         C533   1.457       .  S
C58         C538   1.446       .  S
C69          N87   1.351       .  A
C69         C540   1.434       .  S
C69         C106   1.447       .  S
N70          N87   1.328       .  A
N70          N92   1.321       .  A
N70        Co655   2.095       .  S
C71          N96   1.345       .  A
C71         H116   1.081       .  S
C71         C109   1.458       .  S
H72         C113   1.081       .  S
C73          N97   1.336       .  A
C73         H102   1.081       .  S
C73          C77   1.447       .  S
Co74        N114   2.070       .  S
Co74         N90   2.075       .  S
Co74        N640   2.074   1_545  S
Co74        N630   2.075   1_545  S
Co74       Cl118   2.433       .  S
N75         C113   1.347       .  A
N75          N82   1.321       .  A
N75        Co624   2.103       .  S
Co76         N96   2.091       .  S
Co76         N83   2.106       .  S
Co76        N623   2.103   1_545  S
Co76        N627   2.098   1_545  S
Co76       Cl118   2.474       .  S
C77         N115   1.352       .  A
C77         C527   1.436       .  S
N78          N85   1.320       .  A
N78         N108   1.321       .  A
N78        Co659   2.073       .  S
N79          N97   1.321       .  A
N79         N115   1.329       .  A
N79        Co624   2.098       .  S
N80         C109   1.343       .  A
N80          N90   1.322       .  A
H81         C106   1.082       .  S
N82         N103   1.322       .  A
N82        Co622   2.075       .  S
N83         N101   1.321       .  A
N83          N88   1.331       .  A
C84          N88   1.354       .  A
C84         C526   1.441       .  S
C84         C112   1.447       .  S
N85         C100   1.347       .  A
N85        Co655   2.096       .  S
C86         N114   1.336       .  A
C86         H120   1.082       .  S
C86          C89   1.447       .  S
C89         N110   1.350       .  A
C89         C537   1.430       .  S
N90          N96   1.320       .  A
N91         C117   1.346       .  A
N91          N93   1.320       .  A
N91        Co107   2.096       .  S
N92         C106   1.336       .  A
N92        Co622   2.074       .  S
N93         N121   1.322       .  A
N93        Co111   2.076       .  S
H94         C117   1.081       .  S
H95         C112   1.081       .  S
N97        Co659   2.074       .  S
N98         N110   1.327       .  A
N98         N114   1.321       .  A
N98        Co107   2.094       .  S
C99         N103   1.343       .  A
C99         C547   1.438       .  S
C99         C113   1.463       .  S
C100        H104   1.082       .  S
C100        C119   1.462       .  S
N101        C112   1.337       .  A
N101       Co111   2.072       .  S
C105        N121   1.343       .  A
C105        C529   1.437       .  S
C105        C117   1.461       .  S
Co107       N618   2.095   1_545  S
Co107       N633   2.097   1_545  S
Co107      Cl118   2.472       .  S
N108        C119   1.342       .  A
C109        C546   1.433       .  S
Co111       N626   2.073   1_545  S
Co111       N645   2.074   1_545  S
Co111      Cl118   2.430       .  S
C119        C532   1.436       .  S
N122        C127   1.356       .  A
N122        C126   1.353       .  A
N122        H154   1.038       .  S
N123        C130   1.352       .  A
N123        C131   1.353       .  A
N124        C129   1.354       .  A
N124        C128   1.355       .  A
N124        H155   1.037       .  S
N125        C132   1.352       .  A
N125        C133   1.350       .  A
C126        C134   1.387       .  A
C126        C142   1.414       .  A
C127        C143   1.418       .  A
C127        C135   1.388       .  A
C128        C136   1.386       .  A
C128        C145   1.415       .  A
C129        C144   1.419       .  A
C129        C137   1.389       .  A
C130        C142   1.412       .  A
C130        C138   1.387       .  A
C131        C145   1.412       .  A
C131        C139   1.386       .  A
C132        C140   1.386       .  A
C132        C143   1.412       .  A
C133        C141   1.387       .  A
C133        C144   1.413       .  A
C134        C135   1.376       .  A
C134        H146   1.082       .  S
C135        H147   1.082       .  S
C136        C137   1.376       .  A
C136        H148   1.083       .  S
C137        H149   1.082       .  S
C138        C139   1.373       .  A
C138        H150   1.082       .  S
C139        H151   1.082       .  S
C140        C141   1.375       .  A
C140        H152   1.082       .  S
C141        H153   1.082       .  S
C142        C521   1.450       .  S
C143        C525   1.457       .  S
C144        C528   1.452       .  S
C145        C524   1.455       .  S
N156        C161   1.354       .  A
N156        C160   1.354       .  A
N156        H188   1.038       .  S
N157        C164   1.351       .  A
N157        C165   1.351       .  A
N158        C163   1.354       .  A
N158        C162   1.354       .  A
N158        H189   1.038       .  S
N159        C166   1.351       .  A
N159        C167   1.351       .  A
C160        C168   1.389       .  A
C160        C176   1.417       .  A
C161        C177   1.415       .  A
C161        C169   1.387       .  A
C162        C170   1.388       .  A
C162        C179   1.417       .  A
C163        C178   1.414       .  A
C163        C171   1.387       .  A
C164        C176   1.412       .  A
C164        C172   1.387       .  A
C165        C179   1.412       .  A
C165        C173   1.387       .  A
C166        C174   1.387       .  A
C166        C177   1.411       .  A
C167        C175   1.387       .  A
C167        C178   1.412       .  A
C168        C169   1.377       .  A
C168        H180   1.082       .  S
C169        H181   1.082       .  S
C170        C171   1.377       .  A
C170        H182   1.082       .  S
C171        H183   1.082       .  S
C172        C173   1.374       .  A
C172        H184   1.082       .  S
C173        H185   1.082       .  S
C174        C175   1.374       .  A
C174        H186   1.082       .  S
C175        H187   1.082       .  S
C176        C531   1.452       .  S
C177        C520   1.453       .  S
C178        C518   1.452       .  S
C179        C530   1.453       .  S
C190        N208   1.339       .  A
C190        C542   1.435       .  S
C190        C227   1.467       .  S
N191        N208   1.319       .  A
N191        N213   1.322       .  A
N191      Co1324   2.068       .  S
C192        N217   1.349       .  A
C192        H237   1.081       .  S
C192        C230   1.468       .  S
H193        C234   1.082       .  S
C194        N218   1.351       .  A
C194        H223   1.082       .  S
C194        C198   1.470       .  S
Co195       N203   2.109       .  S
Co195       N211   2.068       .  S
Co195       N761   2.101       .  S
Co195       N783   2.068       .  S
Co195     Cl1335   2.455       .  S
N196        C234   1.336       .  A
N196        N203   1.321       .  A
N196      Co1293   2.075       .  S
Co197       N200   2.067       .  S
Co197       N204   2.105       .  S
Co197      N1292   2.075   1_455  S
Co197      N1313   2.105   1_455  S
Co197      Cl239   2.447       .  S
C198        N236   1.338       .  A
C198        C535   1.438       .  S
N199        N206   1.321       .  A
N199        N229   1.332       .  A
N199       Co780   2.109       .  S
N200        N218   1.322       .  A
N200        N236   1.319       .  A
N201        C230   1.340       .  A
N201        N211   1.321       .  A
H202        C227   1.081       .  S
N203        N224   1.332       .  A
N204        N222   1.321       .  A
N204        N209   1.331       .  A
C205        N209   1.356       .  A
C205        C511   1.441       .  S
C205        C233   1.446       .  S
N206        C221   1.333       .  A
N206       Co228   2.067       .  S
C207        N235   1.333       .  A
C207        H241   1.082       .  S
C207        C210   1.441       .  S
C210        N231   1.356       .  A
C210        C513   1.436       .  S
N211        N217   1.321       .  A
N212        C238   1.350       .  A
N212        N214   1.322       .  A
N212       Co228   2.104       .  S
N213        C227   1.348       .  A
N213       Co743   2.101       .  S
N214        N242   1.320       .  A
N214       Co780   2.069       .  S
H215        C238   1.082       .  S
H216        C233   1.082       .  S
N217      Co1293   2.105       .  S
N218       Co232   2.108       .  S
N219        N231   1.331       .  A
N219        N235   1.321       .  A
N219      Co1324   2.101       .  S
C220        N224   1.358       .  A
C220        C544   1.445       .  S
C220        C234   1.446       .  S
C221        H225   1.082       .  S
C221        C240   1.441       .  S
N222        C233   1.335       .  A
N222       Co232   2.073       .  S
C226        N242   1.339       .  A
C226        C515   1.438       .  S
C226        C238   1.468       .  S
Co228      N1287   2.068   1_455  S
Co228      N1315   2.101   1_455  S
Co228      Cl787   2.448       .  S
N229        C240   1.358       .  A
C230        C509   1.441       .  S
Co232       N747   2.109       .  S
Co232       N762   2.069       .  S
Co232      Cl239   2.458       .  S
N235       Co743   2.068       .  S
Cl239     Co1291   2.455   1_455  S
Cl239      Co776   2.448       .  S
C240        C534   1.440       .  S
C243        N261   1.352       .  A
C243        C503   1.438       .  S
C243        C280   1.450       .  S
N244        N261   1.329       .  A
N244        N266   1.321       .  A
N244      Co1377   2.099       .  S
C245        N270   1.342       .  A
C245        H290   1.081       .  S
C245        C283   1.454       .  S
H246        C287   1.081       .  S
C247        N271   1.335       .  A
C247        H276   1.082       .  S
C247        C251   1.447       .  S
Co248       N288   2.076       .  S
Co248       N264   2.076       .  S
Co248      N1362   2.078   1_455  S
Co248      N1352   2.075   1_455  S
Co248      Cl292   2.434       .  S
N249        C287   1.342       .  A
N249        N256   1.321       .  A
N249      Co1346   2.084       .  S
Co250       N270   2.081       .  S
Co250       N257   2.093   1_556  S
Co250      N1345   2.084   1_455  S
Co250      N1349   2.084   1_456  S
Co250      Cl292   2.469       .  S
C251        N289   1.348       .  A
C251        C495   1.428       .  S
N252        N259   1.321       .  A
N252        N282   1.323       .  A
N252      Co1381   2.081       .  S
N253        N271   1.320       .  A
N253        N289   1.326       .  A
N253      Co1346   2.085   1_554  S
N254        C283   1.344       .  A
N254        N264   1.322       .  A
H255        C280   1.082       .  S
N256        N277   1.322       .  A
N256      Co1344   2.075       .  S
N257        N275   1.321       .  A
N257        N262   1.329       .  A
C258        N262   1.351       .  A
C258        C494   1.437       .  S
C258        C286   1.449       .  S
N259        C274   1.346       .  A
N259      Co1377   2.097   1_554  S
C260        N288   1.337       .  A
C260        H294   1.082       .  S
C260        C263   1.449       .  S
C263        N284   1.351       .  A
C263        C501   1.436       .  S
N264        N270   1.321       .  A
N265        C291   1.346       .  A
N265        N267   1.321       .  A
N265       Co281   2.098   1_554  S
N266        C280   1.338       .  A
N266      Co1344   2.078       .  S
N267        N295   1.321       .  A
N267       Co285   2.071       .  S
H268        C291   1.082       .  S
H269        C286   1.082       .  S
N271      Co1381   2.068       .  S
N272        N284   1.328       .  A
N272        N288   1.321       .  A
N272       Co281   2.098       .  S
C273        N277   1.345       .  A
C273        C508   1.429       .  S
C273        C287   1.455       .  S
C274        H278   1.082       .  S
C274        C293   1.461       .  S
N275        C286   1.337       .  A
N275       Co285   2.079       .  S
C279        N295   1.342       .  A
C279        C497   1.436       .  S
C279        C291   1.463       .  S
Co281      N1340   2.099   1_455  S
Co281      N1355   2.097   1_456  S
Co281      Cl292   2.473       .  S
N282        C293   1.345       .  A
C283        C505   1.428       .  S
Co285      N1348   2.081   1_455  S
Co285      N1367   2.068   1_455  S
Co285      Cl292   2.430   1_554  S
C293        C499   1.440       .  S
N296        C301   1.353       .  A
N296        C300   1.353       .  A
N296        H328   1.039       .  S
N297        C304   1.351       .  A
N297        C305   1.351       .  A
N298        C303   1.354       .  A
N298        C302   1.354       .  A
N298        H329   1.040       .  S
N299        C306   1.353       .  A
N299        C307   1.352       .  A
C300        C308   1.389       .  A
C300        C316   1.416       .  A
C301        C317   1.412       .  A
C301        C309   1.387       .  A
C302        C310   1.388       .  A
C302        C319   1.416       .  A
C303        C318   1.413       .  A
C303        C311   1.386       .  A
C304        C316   1.411       .  A
C304        C312   1.387       .  A
C305        C319   1.411       .  A
C305        C313   1.386       .  A
C306        C314   1.386       .  A
C306        C317   1.413       .  A
C307        C315   1.386       .  A
C307        C318   1.412       .  A
C308        C309   1.377       .  A
C308        H320   1.082       .  S
C309        H321   1.083       .  S
C310        C311   1.376       .  A
C310        H322   1.082       .  S
C311        H323   1.082       .  S
C312        C313   1.375       .  A
C312        H324   1.082       .  S
C313        H325   1.082       .  S
C314        C315   1.375       .  A
C314        H326   1.082       .  S
C315        H327   1.082       .  S
C316        C502   1.451       .  S
C317        C490   1.453       .  S
C318        C492   1.454       .  S
C319        C504   1.453       .  S
N330        C335   1.353       .  A
N330        C334   1.354       .  A
N330        H362   1.038       .  S
N331        C338   1.350       .  A
N331        C339   1.350       .  A
N332        C337   1.352       .  A
N332        C336   1.352       .  A
N332        H363   1.039       .  S
N333        C340   1.351       .  A
N333        C341   1.350       .  A
C334        C342   1.387       .  A
C334        C350   1.415       .  A
C335        C351   1.415       .  A
C335        C343   1.387       .  A
C336        C344   1.387       .  A
C336        C353   1.410       .  A
C337        C352   1.411       .  A
C337        C345   1.388       .  A
C338        C350   1.410       .  A
C338        C346   1.387       .  A
C339        C353   1.408       .  A
C339        C347   1.387       .  A
C340        C348   1.387       .  A
C340        C351   1.411       .  A
C341        C349   1.387       .  A
C341        C352   1.409       .  A
C342        C343   1.378       .  A
C342        H354   1.082       .  S
C343        H355   1.082       .  S
C344        C345   1.374       .  A
C344        H356   1.082       .  S
C345        H357   1.082       .  S
C346        C347   1.372       .  A
C346        H358   1.082       .  S
C347        H359   1.082       .  S
C348        C349   1.373       .  A
C348        H360   1.082       .  S
C349        H361   1.083       .  S
C350        C485   1.451       .  S
C351        C487   1.452       .  S
C352        C507   1.445       .  S
C353        C506   1.444       .  S
C364        N382   1.352       .  A
C364        C523   1.439       .  S
C364        C401   1.449       .  S
N365        N382   1.329       .  A
N365        N387   1.320       .  A
N365       Co402   2.097       .  S
C366        N391   1.345       .  A
C366        H411   1.082       .  S
C366        C404   1.459       .  S
H367        C408   1.082       .  S
C368        N392   1.342       .  A
C368        H397   1.082       .  S
C368        C372   1.461       .  S
Co369       N377   2.076       .  S
Co369      N1483   2.074   1_455  S
Co369      N2053   2.075   1_455  S
Co369       N933   2.078       .  S
Co369      Cl413   2.446       .  S
N370        C408   1.345       .  A
N370        N377   1.320       .  A
N370       Co371   2.094       .  S
Co371       N374   2.085       .  S
Co371       N939   2.090       .  S
Co371       N926   2.081       .  S
Co371      Cl413   2.456       .  S
C372        N410   1.349       .  A
C372        C489   1.440       .  S
N373        N380   1.321       .  A
N373        N403   1.325       .  A
N373      Co1502   2.094       .  S
N374        N392   1.321       .  A
N374        N410   1.324       .  A
N375        C404   1.346       .  A
N375        N385   1.324       .  A
H376        C401   1.081       .  S
N377        N398   1.323       .  A
N378        N396   1.321       .  A
N378        N383   1.323       .  A
N378       Co919   2.081       .  S
C379        N383   1.347       .  A
C379        C486   1.437       .  S
C379        C407   1.463       .  S
N380        C395   1.340       .  A
N380       Co402   2.086       .  S
C381        N409   1.337       .  A
C381        H415   1.082       .  S
C381        C384   1.450       .  S
C384        N405   1.351       .  A
C384        C522   1.435       .  S
N385        N391   1.320       .  A
N385       Co917   2.078       .  S
N386        C412   1.340       .  A
N386        N388   1.321       .  A
N386       Co950   2.084       .  S
N387        C401   1.337       .  A
N387      Co1465   2.074       .  S
N388        N416   1.325       .  A
N388      Co2050   2.090       .  S
H389        C412   1.082       .  S
H390        C407   1.082       .  S
N391       Co919   2.090       .  S
N392       Co406   2.091       .  S
N393        N405   1.328       .  A
N393        N409   1.320       .  A
N393       Co950   2.094       .  S
C394        N398   1.344       .  A
C394        C519   1.438       .  S
C394        C408   1.461       .  S
C395        H399   1.082       .  S
C395        C414   1.459       .  S
N396        C407   1.342       .  A
N396       Co954   2.094       .  S
C400        N416   1.350       .  A
C400        C488   1.438       .  S
C400        C412   1.458       .  S
Co402       N934   2.084       .  S
Co402       N941   2.094       .  S
Co402     Cl1509   2.456       .  S
N403        C414   1.351       .  A
C404        C517   1.438       .  S
Co406      N1469   2.094   1_455  S
Co406      N2032   2.090   1_455  S
Co406       N944   2.094       .  S
Co406      Cl413   2.448       .  S
N409      Co2013   2.075       .  S
Cl413     Co1498   2.456   1_455  S
C414        C491   1.440       .  S
N417        C422   1.355       .  A
N417        C421   1.354       .  A
N417        H449   1.039       .  S
N418        C425   1.351       .  A
N418        C426   1.353       .  A
N419        C424   1.350       .  A
N419        C423   1.353       .  A
N419        H450   1.038       .  S
N420        C427   1.351       .  A
N420        C428   1.351       .  A
C421        C429   1.388       .  A
C421        C437   1.419       .  A
C422        C438   1.418       .  A
C422        C430   1.388       .  A
C423        C431   1.387       .  A
C423        C440   1.412       .  A
C424        C439   1.411       .  A
C424        C432   1.388       .  A
C425        C437   1.411       .  A
C425        C433   1.386       .  A
C426        C440   1.413       .  A
C426        C434   1.387       .  A
C427        C435   1.386       .  A
C427        C438   1.409       .  A
C428        C436   1.388       .  A
C428        C439   1.412       .  A
C429        C430   1.380       .  A
C429        H441   1.082       .  S
C430        H442   1.083       .  S
C431        C432   1.377       .  A
C431        H443   1.082       .  S
C432        H444   1.083       .  S
C433        C434   1.371       .  A
C433        H445   1.082       .  S
C434        H446   1.082       .  S
C435        C436   1.371       .  A
C435        H447   1.083       .  S
C436        H448   1.082       .  S
C437        C516   1.454       .  S
C438        C514   1.453       .  S
C439        C496   1.444       .  S
C440        C493   1.453       .  S
N451        C456   1.357       .  A
N451        C455   1.358       .  A
N451        H483   1.038       .  S
N452        C459   1.351       .  A
N452        C460   1.352       .  A
N453        C458   1.353       .  A
N453        C457   1.353       .  A
N453        H484   1.036       .  S
N454        C461   1.352       .  A
N454        C462   1.354       .  A
C455        C463   1.388       .  A
C455        C471   1.422       .  A
C456        C472   1.422       .  A
C456        C464   1.388       .  A
C457        C465   1.388       .  A
C457        C474   1.414       .  A
C458        C473   1.414       .  A
C458        C466   1.387       .  A
C459        C471   1.412       .  A
C459        C467   1.387       .  A
C460        C474   1.415       .  A
C460        C468   1.387       .  A
C461        C469   1.388       .  A
C461        C472   1.414       .  A
C462        C470   1.387       .  A
C462        C473   1.415       .  A
C463        C464   1.379       .  A
C463        H475   1.082       .  S
C464        H476   1.082       .  S
C465        C466   1.375       .  A
C465        H477   1.082       .  S
C466        H478   1.082       .  S
C467        C468   1.373       .  A
C467        H479   1.083       .  S
C468        H480   1.082       .  S
C469        C470   1.371       .  A
C469        H481   1.082       .  S
C470        H482   1.082       .  S
C471        C512   1.457       .  S
C472        C510   1.457       .  S
C473        C500   1.455       .  S
C474        C498   1.452       .  S
C485        C486   1.207       .  T
C487        C488   1.207       .  T
C489        C490   1.208       .  T
C491        C492   1.209       .  T
C493        C494   1.207       .  T
C495        C496   1.202       .  T
C497        C498   1.207       .  T
C499        C500   1.209       .  T
C501        C502   1.207       .  T
C503        C504   1.208       .  T
C505        C506   1.202       .  T
C507        C508   1.202       .  T
C509        C510   1.210       .  T
C511        C512   1.210       .  T
C513        C514   1.208       .  T
C515        C516   1.208       .  T
C517        C518   1.207       .  T
C519        C520   1.208       .  T
C521        C522   1.206       .  T
C523        C524   1.209       .  T
C525        C526   1.210       .  T
C527        C528   1.207       .  T
C529        C530   1.207       .  T
C531        C532   1.207       .  T
C533        C534   1.210       .  T
C535        C536   1.209       .  T
C537        C538   1.203       .  T
C539        C540   1.205       .  T
C541        C542   1.207       .  T
C543        C544   1.212       .  T
C545        C546   1.205       .  T
C547        C548   1.208       .  T
N549        C554   1.356       .  A
N549        C553   1.357       .  A
N549        H581   1.039       .  S
N550        C557   1.351       .  A
N550        C558   1.352       .  A
N551        C556   1.352       .  A
N551        C555   1.352       .  A
N551        H582   1.038       .  S
N552        C559   1.350       .  A
N552        C560   1.352       .  A
C553        C561   1.388       .  A
C553        C569   1.421       .  A
C554        C570   1.419       .  A
C554        C562   1.388       .  A
C555        C563   1.387       .  A
C555        C572   1.412       .  A
C556        C571   1.410       .  A
C556        C564   1.387       .  A
C557        C569   1.411       .  A
C557        C565   1.386       .  A
C558        C572   1.414       .  A
C558        C566   1.387       .  A
C559        C567   1.388       .  A
C559        C570   1.410       .  A
C560        C568   1.387       .  A
C560        C571   1.412       .  A
C561        C562   1.380       .  A
C561        H573   1.082       .  S
C562        H574   1.083       .  S
C563        C564   1.377       .  A
C563        H575   1.082       .  S
C564        H576   1.082       .  S
C565        C566   1.373       .  A
C565        H577   1.082       .  S
C566        H578   1.082       .  S
C567        C568   1.371       .  A
C567        H579   1.083       .  S
C568        H580   1.082       .  S
C569       C1091   1.459       .  S
C570       C1089   1.451       .  S
C571       C1093   1.448       .  S
C572       C1096   1.453       .  S
N583        C588   1.351       .  A
N583        C587   1.354       .  A
N583        H615   1.039       .  S
N584        C591   1.351       .  A
N584        C592   1.350       .  A
N585        C590   1.352       .  A
N585        C589   1.352       .  A
N585        H616   1.039       .  S
N586        C593   1.355       .  A
N586        C594   1.355       .  A
C587        C595   1.386       .  A
C587        C603   1.412       .  A
C588        C604   1.416       .  A
C588        C596   1.391       .  A
C589        C597   1.387       .  A
C589        C606   1.411       .  A
C590        C605   1.415       .  A
C590        C598   1.390       .  A
C591        C603   1.408       .  A
C591        C599   1.386       .  A
C592        C606   1.408       .  A
C592        C600   1.386       .  A
C593        C601   1.387       .  A
C593        C604   1.422       .  A
C594        C602   1.387       .  A
C594        C605   1.421       .  A
C595        C596   1.372       .  A
C595        H607   1.082       .  S
C596        H608   1.082       .  S
C597        C598   1.374       .  A
C597        H609   1.083       .  S
C598        H610   1.082       .  S
C599        C600   1.372       .  A
C599        H611   1.082       .  S
C600        H612   1.082       .  S
C601        C602   1.379       .  A
C601        H613   1.082       .  S
C602        H614   1.082       .  S
C603       C1087   1.449       .  S
C604       C1084   1.455       .  S
C605       C1081   1.457       .  S
C606       C1086   1.445       .  S
C617        N635   1.351       .  A
C617       C1088   1.433       .  S
C617        C654   1.447       .  S
N618        N635   1.328       .  A
N618        N640   1.321       .  A
C619        N644   1.345       .  A
C619        H664   1.081       .  S
C619        C657   1.458       .  S
H620        C661   1.081       .  S
C621        N645   1.336       .  A
C621        H650   1.081       .  S
C621        C625   1.447       .  S
Co622       N662   2.070       .  S
Co622       N638   2.075       .  S
Co622      Cl666   2.433       .  S
N623        C661   1.347       .  A
N623        N630   1.321       .  A
Co624       N644   2.091       .  S
Co624       N631   2.105       .  S
Co624      Cl666   2.474       .  S
C625        N663   1.352       .  A
C625       C1075   1.436       .  S
N626        N633   1.321       .  A
N626        N656   1.321       .  A
N627        N645   1.321       .  A
N627        N663   1.329       .  A
N628        C657   1.343       .  A
N628        N638   1.322       .  A
H629        C654   1.082       .  S
N630        N651   1.322       .  A
N631        N649   1.320       .  A
N631        N636   1.331       .  A
C632        N636   1.354       .  A
C632       C1074   1.440       .  S
C632        C660   1.446       .  S
N633        C648   1.347       .  A
C634        N662   1.336       .  A
C634        H668   1.082       .  S
C634        C637   1.447       .  S
C637        N658   1.350       .  A
C637       C1085   1.430       .  S
N638        N644   1.320       .  A
N639        C665   1.346       .  A
N639        N641   1.320       .  A
N639       Co655   2.096       .  S
N640        C654   1.336       .  A
N641        N669   1.322       .  A
N641       Co659   2.076       .  S
H642        C665   1.081       .  S
H643        C660   1.081       .  S
N646        N658   1.327       .  A
N646        N662   1.321       .  A
N646       Co655   2.093       .  S
C647        N651   1.343       .  A
C647       C1095   1.439       .  S
C647        C661   1.463       .  S
C648        H652   1.082       .  S
C648        C667   1.462       .  S
N649        C660   1.337       .  A
N649       Co659   2.072       .  S
C653        N669   1.343       .  A
C653       C1077   1.437       .  S
C653        C665   1.461       .  S
Co655      Cl666   2.472       .  S
N656        C667   1.342       .  A
C657       C1094   1.433       .  S
Co659      Cl666   2.430       .  S
C667       C1080   1.436       .  S
N670        C675   1.356       .  A
N670        C674   1.353       .  A
N670        H702   1.038       .  S
N671        C678   1.352       .  A
N671        C679   1.353       .  A
N672        C677   1.354       .  A
N672        C676   1.355       .  A
N672        H703   1.037       .  S
N673        C680   1.352       .  A
N673        C681   1.350       .  A
C674        C682   1.387       .  A
C674        C690   1.414       .  A
C675        C691   1.418       .  A
C675        C683   1.388       .  A
C676        C684   1.386       .  A
C676        C693   1.415       .  A
C677        C692   1.419       .  A
C677        C685   1.389       .  A
C678        C690   1.412       .  A
C678        C686   1.387       .  A
C679        C693   1.412       .  A
C679        C687   1.386       .  A
C680        C688   1.386       .  A
C680        C691   1.412       .  A
C681        C689   1.387       .  A
C681        C692   1.413       .  A
C682        C683   1.376       .  A
C682        H694   1.082       .  S
C683        H695   1.082       .  S
C684        C685   1.376       .  A
C684        H696   1.083       .  S
C685        H697   1.082       .  S
C686        C687   1.373       .  A
C686        H698   1.082       .  S
C687        H699   1.082       .  S
C688        C689   1.375       .  A
C688        H700   1.082       .  S
C689        H701   1.082       .  S
C690       C1069   1.450       .  S
C691       C1073   1.456       .  S
C692       C1076   1.452       .  S
C693       C1072   1.455       .  S
N704        C709   1.354       .  A
N704        C708   1.354       .  A
N704        H736   1.038       .  S
N705        C712   1.351       .  A
N705        C713   1.351       .  A
N706        C711   1.354       .  A
N706        C710   1.354       .  A
N706        H737   1.038       .  S
N707        C714   1.351       .  A
N707        C715   1.351       .  A
C708        C716   1.388       .  A
C708        C724   1.417       .  A
C709        C725   1.415       .  A
C709        C717   1.387       .  A
C710        C718   1.388       .  A
C710        C727   1.417       .  A
C711        C726   1.414       .  A
C711        C719   1.387       .  A
C712        C724   1.412       .  A
C712        C720   1.387       .  A
C713        C727   1.412       .  A
C713        C721   1.387       .  A
C714        C722   1.387       .  A
C714        C725   1.411       .  A
C715        C723   1.387       .  A
C715        C726   1.412       .  A
C716        C717   1.377       .  A
C716        H728   1.082       .  S
C717        H729   1.082       .  S
C718        C719   1.377       .  A
C718        H730   1.082       .  S
C719        H731   1.082       .  S
C720        C721   1.374       .  A
C720        H732   1.082       .  S
C721        H733   1.082       .  S
C722        C723   1.374       .  A
C722        H734   1.082       .  S
C723        H735   1.082       .  S
C724       C1079   1.452       .  S
C725       C1068   1.453       .  S
C726       C1066   1.452       .  S
C727       C1078   1.453       .  S
C738        N756   1.339       .  A
C738       C1090   1.435       .  S
C738        C775   1.467       .  S
N739        N756   1.319       .  A
N739        N761   1.322       .  A
N739      Co1872   2.068       .  S
C740        N765   1.349       .  A
C740        H785   1.081       .  S
C740        C778   1.469       .  S
H741        C782   1.082       .  S
C742        N766   1.351       .  A
C742        H771   1.082       .  S
C742        C746   1.470       .  S
Co743       N751   2.109   1_545  S
Co743       N759   2.068   1_545  S
Co743     Cl1883   2.455       .  S
N744        C782   1.336       .  A
N744        N751   1.321       .  A
N744      Co1841   2.075       .  S
Co745      N1840   2.075   1_455  S
Co745       N748   2.067       .  S
Co745      N1861   2.105   1_455  S
Co745       N752   2.105       .  S
Co745      Cl787   2.447   1_565  S
C746        N784   1.338       .  A
C746       C1083   1.438       .  S
N747        N754   1.321       .  A
N747        N777   1.332       .  A
N748        N766   1.322       .  A
N748        N784   1.319       .  A
N749        C778   1.340       .  A
N749        N759   1.321       .  A
H750        C775   1.081       .  S
N751        N772   1.332       .  A
N752        N770   1.321       .  A
N752        N757   1.331       .  A
C753        N757   1.356       .  A
C753       C1059   1.441       .  S
C753        C781   1.446       .  S
N754        C769   1.333       .  A
N754       Co776   2.067       .  S
C755        N783   1.333       .  A
C755        H789   1.082       .  S
C755        C758   1.441       .  S
C758        N779   1.356       .  A
C758       C1061   1.437       .  S
N759        N765   1.321       .  A
N760        C786   1.350       .  A
N760        N762   1.322       .  A
N760       Co776   2.104       .  S
N761        C775   1.348       .  A
N762        N790   1.320       .  A
H763        C786   1.082       .  S
H764        C781   1.082       .  S
N765      Co1841   2.105       .  S
N766       Co780   2.108   1_565  S
N767        N779   1.331       .  A
N767        N783   1.321       .  A
N767      Co1872   2.101       .  S
C768        N772   1.358       .  A
C768       C1092   1.445       .  S
C768        C782   1.446       .  S
C769        H773   1.082       .  S
C769        C788   1.441       .  S
N770        C781   1.335       .  A
N770       Co780   2.073   1_565  S
C774        N790   1.339       .  A
C774       C1063   1.438       .  S
C774        C786   1.468       .  S
Co776      N1835   2.068   1_455  S
Co776      N1863   2.101   1_455  S
N777        C788   1.358       .  A
C778       C1057   1.441       .  S
Co780      Cl787   2.458       .  S
Cl787     Co1839   2.455   1_455  S
C788       C1082   1.440       .  S
C791        N809   1.352       .  A
C791       C1051   1.438       .  S
C791        C828   1.450       .  S
N792        N809   1.329       .  A
N792        N814   1.321       .  A
N792      Co1925   2.098       .  S
C793        N818   1.342       .  A
C793        H838   1.081       .  S
C793        C831   1.454       .  S
H794        C835   1.081       .  S
C795        N819   1.335       .  A
C795        H824   1.082       .  S
C795        C799   1.448       .  S
Co796      N1910   2.077   1_455  S
Co796      N1900   2.075   1_455  S
Co796       N836   2.076       .  S
Co796       N812   2.075       .  S
Co796      Cl840   2.434       .  S
N797        C835   1.342       .  A
N797        N804   1.321       .  A
N797      Co1894   2.084       .  S
Co798      N1893   2.084   1_455  S
Co798      N1897   2.085   1_456  S
Co798       N818   2.081       .  S
Co798       N805   2.093   1_556  S
Co798      Cl840   2.469       .  S
C799        N837   1.349       .  A
C799       C1043   1.429       .  S
N800        N807   1.321       .  A
N800        N830   1.323       .  A
N800      Co1929   2.081       .  S
N801        N819   1.320       .  A
N801        N837   1.326       .  A
N801      Co1894   2.085   1_554  S
N802        C831   1.344       .  A
N802        N812   1.322       .  A
H803        C828   1.082       .  S
N804        N825   1.322       .  A
N804      Co1892   2.075       .  S
N805        N823   1.321       .  A
N805        N810   1.329       .  A
C806        N810   1.351       .  A
C806       C1042   1.438       .  S
C806        C834   1.449       .  S
N807        C822   1.346       .  A
N807      Co1925   2.097   1_554  S
C808        N836   1.337       .  A
C808        H842   1.082       .  S
C808        C811   1.449       .  S
C811        N832   1.351       .  A
C811       C1049   1.436       .  S
N812        N818   1.321       .  A
N813        C839   1.346       .  A
N813        N815   1.321       .  A
N813       Co829   2.098   1_554  S
N814        C828   1.338       .  A
N814      Co1892   2.078       .  S
N815        N843   1.321       .  A
N815       Co833   2.070       .  S
H816        C839   1.082       .  S
H817        C834   1.082       .  S
N819      Co1929   2.068       .  S
N820        N832   1.328       .  A
N820        N836   1.321       .  A
N820       Co829   2.097       .  S
C821        N825   1.344       .  A
C821       C1056   1.429       .  S
C821        C835   1.455       .  S
C822        H826   1.082       .  S
C822        C841   1.461       .  S
N823        C834   1.337       .  A
N823       Co833   2.079       .  S
C827        N843   1.342       .  A
C827       C1045   1.435       .  S
C827        C839   1.463       .  S
Co829      N1888   2.099   1_455  S
Co829      N1903   2.097   1_456  S
Co829      Cl840   2.473       .  S
N830        C841   1.345       .  A
C831       C1053   1.428       .  S
Co833      N1896   2.081   1_455  S
Co833      N1915   2.068   1_455  S
Co833      Cl840   2.430   1_554  S
C841       C1047   1.440       .  S
N844        C849   1.353       .  A
N844        C848   1.353       .  A
N844        H876   1.039       .  S
N845        C852   1.351       .  A
N845        C853   1.351       .  A
N846        C851   1.354       .  A
N846        C850   1.354       .  A
N846        H877   1.040       .  S
N847        C854   1.353       .  A
N847        C855   1.352       .  A
C848        C856   1.389       .  A
C848        C864   1.416       .  A
C849        C865   1.412       .  A
C849        C857   1.387       .  A
C850        C858   1.388       .  A
C850        C867   1.416       .  A
C851        C866   1.413       .  A
C851        C859   1.386       .  A
C852        C864   1.411       .  A
C852        C860   1.387       .  A
C853        C867   1.411       .  A
C853        C861   1.386       .  A
C854        C862   1.386       .  A
C854        C865   1.413       .  A
C855        C863   1.386       .  A
C855        C866   1.412       .  A
C856        C857   1.377       .  A
C856        H868   1.082       .  S
C857        H869   1.083       .  S
C858        C859   1.376       .  A
C858        H870   1.082       .  S
C859        H871   1.082       .  S
C860        C861   1.375       .  A
C860        H872   1.082       .  S
C861        H873   1.082       .  S
C862        C863   1.375       .  A
C862        H874   1.082       .  S
C863        H875   1.082       .  S
C864       C1050   1.451       .  S
C865       C1038   1.453       .  S
C866       C1040   1.454       .  S
C867       C1052   1.452       .  S
N878        C883   1.353       .  A
N878        C882   1.354       .  A
N878        H910   1.038       .  S
N879        C886   1.350       .  A
N879        C887   1.350       .  A
N880        C885   1.352       .  A
N880        C884   1.352       .  A
N880        H911   1.038       .  S
N881        C888   1.351       .  A
N881        C889   1.350       .  A
C882        C890   1.387       .  A
C882        C898   1.415       .  A
C883        C899   1.415       .  A
C883        C891   1.387       .  A
C884        C892   1.388       .  A
C884        C901   1.410       .  A
C885        C900   1.411       .  A
C885        C893   1.388       .  A
C886        C898   1.410       .  A
C886        C894   1.387       .  A
C887        C901   1.408       .  A
C887        C895   1.387       .  A
C888        C896   1.387       .  A
C888        C899   1.411       .  A
C889        C897   1.387       .  A
C889        C900   1.409       .  A
C890        C891   1.378       .  A
C890        H902   1.082       .  S
C891        H903   1.082       .  S
C892        C893   1.374       .  A
C892        H904   1.082       .  S
C893        H905   1.082       .  S
C894        C895   1.372       .  A
C894        H906   1.082       .  S
C895        H907   1.082       .  S
C896        C897   1.373       .  A
C896        H908   1.082       .  S
C897        H909   1.083       .  S
C898       C1033   1.451       .  S
C899       C1035   1.452       .  S
C900       C1055   1.445       .  S
C901       C1054   1.444       .  S
C912        N930   1.352       .  A
C912       C1071   1.439       .  S
C912        C949   1.449       .  S
N913        N930   1.329       .  A
N913        N935   1.320       .  A
N913       Co950   2.097   1_565  S
C914        N939   1.345       .  A
C914        H959   1.082       .  S
C914        C952   1.458       .  S
H915        C956   1.082       .  S
C916        N940   1.342       .  A
C916        H945   1.082       .  S
C916        C920   1.461       .  S
Co917      N2031   2.074   1_445  S
Co917       N925   2.076   1_545  S
Co917      N1505   2.075   1_455  S
Co917      Cl961   2.446       .  S
N918        C956   1.346       .  A
N918        N925   1.320       .  A
N918       Co919   2.094   1_565  S
Co919       N922   2.085   1_545  S
Co919      Cl961   2.456       .  S
C920        N958   1.349       .  A
C920       C1037   1.440       .  S
N921        N928   1.321       .  A
N921        N951   1.325       .  A
N921      Co2050   2.094   1_565  S
N922        N940   1.321       .  A
N922        N958   1.324       .  A
N923        C952   1.346       .  A
N923        N933   1.324       .  A
H924        C949   1.081       .  S
N925        N946   1.323       .  A
N926        N944   1.321       .  A
N926        N931   1.323       .  A
C927        N931   1.347       .  A
C927       C1034   1.437       .  S
C927        C955   1.463       .  S
N928        C943   1.340       .  A
N928       Co950   2.086   1_565  S
C929        N957   1.337       .  A
C929        H963   1.082       .  S
C929        C932   1.450       .  S
C932        N953   1.351       .  A
C932       C1070   1.436       .  S
N933        N939   1.320       .  A
N934        C960   1.340       .  A
N934        N936   1.321       .  A
N935        C949   1.337       .  A
N935      Co2013   2.074   1_565  S
N936        N964   1.325       .  A
N936      Co1502   2.090       .  S
H937        C960   1.082       .  S
H938        C955   1.082       .  S
N940       Co954   2.090   1_565  S
N941        N953   1.328       .  A
N941        N957   1.320       .  A
C942        N946   1.344       .  A
C942       C1067   1.438       .  S
C942        C956   1.461       .  S
C943        H947   1.082       .  S
C943        C962   1.459       .  S
N944        C955   1.342       .  A
C948        N964   1.350       .  A
C948       C1036   1.438       .  S
C948        C960   1.458       .  S
Co950     Cl2057   2.456       .  S
N951        C962   1.351       .  A
C952       C1065   1.437       .  S
Co954      N2017   2.094   1_445  S
Co954      N1484   2.090   1_455  S
Co954      Cl961   2.448       .  S
N957      Co1465   2.075       .  S
Cl961     Co2046   2.456   1_455  S
C962       C1039   1.440       .  S
N965        C970   1.355       .  A
N965        C969   1.354       .  A
N965        H997   1.039       .  S
N966        C973   1.351       .  A
N966        C974   1.353       .  A
N967        C972   1.350       .  A
N967        C971   1.353       .  A
N967        H998   1.038       .  S
N968        C975   1.351       .  A
N968        C976   1.351       .  A
C969        C977   1.388       .  A
C969        C985   1.418       .  A
C970        C986   1.418       .  A
C970        C978   1.388       .  A
C971        C979   1.387       .  A
C971        C988   1.412       .  A
C972        C987   1.411       .  A
C972        C980   1.388       .  A
C973        C985   1.411       .  A
C973        C981   1.386       .  A
C974        C988   1.413       .  A
C974        C982   1.387       .  A
C975        C983   1.386       .  A
C975        C986   1.409       .  A
C976        C984   1.388       .  A
C976        C987   1.412       .  A
C977        C978   1.380       .  A
C977        H989   1.082       .  S
C978        H990   1.083       .  S
C979        C980   1.377       .  A
C979        H991   1.082       .  S
C980        H992   1.083       .  S
C981        C982   1.371       .  A
C981        H993   1.082       .  S
C982        H994   1.082       .  S
C983        C984   1.371       .  A
C983        H995   1.083       .  S
C984        H996   1.082       .  S
C985       C1064   1.453       .  S
C986       C1062   1.453       .  S
C987       C1044   1.444       .  S
C988       C1041   1.453       .  S
N999       C1004   1.357       .  A
N999       C1003   1.358       .  A
N999       H1031   1.038       .  S
N1000      C1007   1.351       .  A
N1000      C1008   1.352       .  A
N1001      C1006   1.353       .  A
N1001      C1005   1.353       .  A
N1001      H1032   1.036       .  S
N1002      C1009   1.352       .  A
N1002      C1010   1.354       .  A
C1003      C1011   1.388       .  A
C1003      C1019   1.422       .  A
C1004      C1020   1.422       .  A
C1004      C1012   1.388       .  A
C1005      C1013   1.388       .  A
C1005      C1022   1.414       .  A
C1006      C1021   1.414       .  A
C1006      C1014   1.387       .  A
C1007      C1019   1.412       .  A
C1007      C1015   1.387       .  A
C1008      C1022   1.414       .  A
C1008      C1016   1.387       .  A
C1009      C1017   1.388       .  A
C1009      C1020   1.414       .  A
C1010      C1018   1.386       .  A
C1010      C1021   1.415       .  A
C1011      C1012   1.379       .  A
C1011      H1023   1.083       .  S
C1012      H1024   1.082       .  S
C1013      C1014   1.375       .  A
C1013      H1025   1.082       .  S
C1014      H1026   1.082       .  S
C1015      C1016   1.373       .  A
C1015      H1027   1.083       .  S
C1016      H1028   1.082       .  S
C1017      C1018   1.371       .  A
C1017      H1029   1.082       .  S
C1018      H1030   1.082       .  S
C1019      C1060   1.457       .  S
C1020      C1058   1.457       .  S
C1021      C1048   1.455       .  S
C1022      C1046   1.451       .  S
C1033      C1034   1.207       .  T
C1035      C1036   1.207       .  T
C1037      C1038   1.208       .  T
C1039      C1040   1.209       .  T
C1041      C1042   1.208       .  T
C1043      C1044   1.202       .  T
C1045      C1046   1.206       .  T
C1047      C1048   1.209       .  T
C1049      C1050   1.207       .  T
C1051      C1052   1.207       .  T
C1053      C1054   1.202       .  T
C1055      C1056   1.202       .  T
C1057      C1058   1.210       .  T
C1059      C1060   1.210       .  T
C1061      C1062   1.208       .  T
C1063      C1064   1.208       .  T
C1065      C1066   1.207       .  T
C1067      C1068   1.208       .  T
C1069      C1070   1.206       .  T
C1071      C1072   1.209       .  T
C1073      C1074   1.210       .  T
C1075      C1076   1.207       .  T
C1077      C1078   1.207       .  T
C1079      C1080   1.207       .  T
C1081      C1082   1.210       .  T
C1083      C1084   1.209       .  T
C1085      C1086   1.203       .  T
C1087      C1088   1.205       .  T
C1089      C1090   1.207       .  T
C1091      C1092   1.212       .  T
C1093      C1094   1.205       .  T
C1095      C1096   1.208       .  T
N1097      C1102   1.356       .  A
N1097      C1101   1.357       .  A
N1097      H1129   1.039       .  S
N1098      C1105   1.351       .  A
N1098      C1106   1.352       .  A
N1099      C1104   1.352       .  A
N1099      C1103   1.352       .  A
N1099      H1130   1.038       .  S
N1100      C1107   1.350       .  A
N1100      C1108   1.352       .  A
C1101      C1109   1.388       .  A
C1101      C1117   1.421       .  A
C1102      C1118   1.419       .  A
C1102      C1110   1.388       .  A
C1103      C1111   1.387       .  A
C1103      C1120   1.413       .  A
C1104      C1119   1.411       .  A
C1104      C1112   1.387       .  A
C1105      C1117   1.411       .  A
C1105      C1113   1.386       .  A
C1106      C1120   1.414       .  A
C1106      C1114   1.387       .  A
C1107      C1115   1.388       .  A
C1107      C1118   1.410       .  A
C1108      C1116   1.387       .  A
C1108      C1119   1.412       .  A
C1109      C1110   1.380       .  A
C1109      H1121   1.082       .  S
C1110      H1122   1.083       .  S
C1111      C1112   1.377       .  A
C1111      H1123   1.082       .  S
C1112      H1124   1.082       .  S
C1113      C1114   1.373       .  A
C1113      H1125   1.082       .  S
C1114      H1126   1.082       .  S
C1115      C1116   1.371       .  A
C1115      H1127   1.083       .  S
C1116      H1128   1.082       .  S
C1117      C1639   1.459       .  S
C1118      C1637   1.451       .  S
C1119      C1641   1.448       .  S
C1120      C1644   1.453       .  S
N1131      C1136   1.351       .  A
N1131      C1135   1.354       .  A
N1131      H1163   1.038       .  S
N1132      C1139   1.351       .  A
N1132      C1140   1.350       .  A
N1133      C1138   1.352       .  A
N1133      C1137   1.352       .  A
N1133      H1164   1.040       .  S
N1134      C1141   1.355       .  A
N1134      C1142   1.355       .  A
C1135      C1143   1.386       .  A
C1135      C1151   1.412       .  A
C1136      C1152   1.416       .  A
C1136      C1144   1.391       .  A
C1137      C1145   1.386       .  A
C1137      C1154   1.411       .  A
C1138      C1153   1.415       .  A
C1138      C1146   1.390       .  A
C1139      C1151   1.408       .  A
C1139      C1147   1.386       .  A
C1140      C1154   1.408       .  A
C1140      C1148   1.386       .  A
C1141      C1149   1.387       .  A
C1141      C1152   1.422       .  A
C1142      C1150   1.386       .  A
C1142      C1153   1.421       .  A
C1143      C1144   1.372       .  A
C1143      H1155   1.082       .  S
C1144      H1156   1.082       .  S
C1145      C1146   1.374       .  A
C1145      H1157   1.083       .  S
C1146      H1158   1.082       .  S
C1147      C1148   1.372       .  A
C1147      H1159   1.082       .  S
C1148      H1160   1.082       .  S
C1149      C1150   1.379       .  A
C1149      H1161   1.082       .  S
C1150      H1162   1.082       .  S
C1151      C1635   1.449       .  S
C1152      C1632   1.455       .  S
C1153      C1629   1.457       .  S
C1154      C1634   1.446       .  S
C1165      N1183   1.351       .  A
C1165      C1636   1.434       .  S
C1165      C1202   1.447       .  S
N1166      N1183   1.328       .  A
N1166      N1188   1.321       .  A
N1166     Co1751   2.095       .  S
C1167      N1192   1.345       .  A
C1167      H1212   1.081       .  S
C1167      C1205   1.458       .  S
H1168      C1209   1.081       .  S
C1169      N1193   1.336       .  A
C1169      H1198   1.081       .  S
C1169      C1173   1.447       .  S
Co1170     N1736   2.074   1_545  S
Co1170     N1726   2.075   1_545  S
Co1170     N1210   2.070       .  S
Co1170     N1186   2.075       .  S
Co1170    Cl1214   2.433       .  S
N1171      C1209   1.347       .  A
N1171      N1178   1.321       .  A
N1171     Co1720   2.103       .  S
Co1172     N1719   2.103   1_545  S
Co1172     N1723   2.098   1_545  S
Co1172     N1192   2.091       .  S
Co1172     N1179   2.106       .  S
Co1172    Cl1214   2.474       .  S
C1173      N1211   1.352       .  A
C1173      C1623   1.436       .  S
N1174      N1181   1.320       .  A
N1174      N1204   1.321       .  A
N1174     Co1755   2.073       .  S
N1175      N1193   1.321       .  A
N1175      N1211   1.329       .  A
N1175     Co1720   2.098       .  S
N1176      C1205   1.343       .  A
N1176      N1186   1.322       .  A
H1177      C1202   1.082       .  S
N1178      N1199   1.322       .  A
N1178     Co1718   2.075       .  S
N1179      N1197   1.321       .  A
N1179      N1184   1.331       .  A
C1180      N1184   1.354       .  A
C1180      C1622   1.441       .  S
C1180      C1208   1.447       .  S
N1181      C1196   1.347       .  A
N1181     Co1751   2.096       .  S
C1182      N1210   1.336       .  A
C1182      H1216   1.082       .  S
C1182      C1185   1.447       .  S
C1185      N1206   1.350       .  A
C1185      C1633   1.430       .  S
N1186      N1192   1.320       .  A
N1187      C1213   1.346       .  A
N1187      N1189   1.320       .  A
N1187     Co1203   2.096       .  S
N1188      C1202   1.336       .  A
N1188     Co1718   2.074       .  S
N1189      N1217   1.322       .  A
N1189     Co1207   2.076       .  S
H1190      C1213   1.081       .  S
H1191      C1208   1.081       .  S
N1193     Co1755   2.074       .  S
N1194      N1206   1.327       .  A
N1194      N1210   1.321       .  A
N1194     Co1203   2.094       .  S
C1195      N1199   1.343       .  A
C1195      C1643   1.438       .  S
C1195      C1209   1.463       .  S
C1196      H1200   1.082       .  S
C1196      C1215   1.462       .  S
N1197      C1208   1.337       .  A
N1197     Co1207   2.072       .  S
C1201      N1217   1.343       .  A
C1201      C1625   1.437       .  S
C1201      C1213   1.461       .  S
Co1203     N1714   2.095   1_545  S
Co1203     N1729   2.097   1_545  S
Co1203    Cl1214   2.472       .  S
N1204      C1215   1.342       .  A
C1205      C1642   1.433       .  S
Co1207     N1722   2.073   1_545  S
Co1207     N1741   2.074   1_545  S
Co1207    Cl1214   2.430       .  S
C1215      C1628   1.436       .  S
N1218      C1223   1.356       .  A
N1218      C1222   1.353       .  A
N1218      H1250   1.038       .  S
N1219      C1226   1.352       .  A
N1219      C1227   1.353       .  A
N1220      C1225   1.354       .  A
N1220      C1224   1.355       .  A
N1220      H1251   1.037       .  S
N1221      C1228   1.352       .  A
N1221      C1229   1.351       .  A
C1222      C1230   1.387       .  A
C1222      C1238   1.414       .  A
C1223      C1239   1.418       .  A
C1223      C1231   1.388       .  A
C1224      C1232   1.386       .  A
C1224      C1241   1.415       .  A
C1225      C1240   1.419       .  A
C1225      C1233   1.389       .  A
C1226      C1238   1.412       .  A
C1226      C1234   1.387       .  A
C1227      C1241   1.412       .  A
C1227      C1235   1.386       .  A
C1228      C1236   1.386       .  A
C1228      C1239   1.412       .  A
C1229      C1237   1.387       .  A
C1229      C1240   1.413       .  A
C1230      C1231   1.376       .  A
C1230      H1242   1.082       .  S
C1231      H1243   1.082       .  S
C1232      C1233   1.376       .  A
C1232      H1244   1.083       .  S
C1233      H1245   1.082       .  S
C1234      C1235   1.373       .  A
C1234      H1246   1.082       .  S
C1235      H1247   1.082       .  S
C1236      C1237   1.375       .  A
C1236      H1248   1.082       .  S
C1237      H1249   1.082       .  S
C1238      C1617   1.450       .  S
C1239      C1621   1.457       .  S
C1240      C1624   1.452       .  S
C1241      C1620   1.455       .  S
N1252      C1257   1.354       .  A
N1252      C1256   1.354       .  A
N1252      H1284   1.038       .  S
N1253      C1260   1.351       .  A
N1253      C1261   1.351       .  A
N1254      C1259   1.354       .  A
N1254      C1258   1.354       .  A
N1254      H1285   1.038       .  S
N1255      C1262   1.351       .  A
N1255      C1263   1.351       .  A
C1256      C1264   1.389       .  A
C1256      C1272   1.417       .  A
C1257      C1273   1.415       .  A
C1257      C1265   1.387       .  A
C1258      C1266   1.388       .  A
C1258      C1275   1.417       .  A
C1259      C1274   1.414       .  A
C1259      C1267   1.387       .  A
C1260      C1272   1.412       .  A
C1260      C1268   1.387       .  A
C1261      C1275   1.412       .  A
C1261      C1269   1.387       .  A
C1262      C1270   1.387       .  A
C1262      C1273   1.411       .  A
C1263      C1271   1.387       .  A
C1263      C1274   1.412       .  A
C1264      C1265   1.377       .  A
C1264      H1276   1.082       .  S
C1265      H1277   1.082       .  S
C1266      C1267   1.377       .  A
C1266      H1278   1.082       .  S
C1267      H1279   1.082       .  S
C1268      C1269   1.374       .  A
C1268      H1280   1.082       .  S
C1269      H1281   1.082       .  S
C1270      C1271   1.374       .  A
C1270      H1282   1.082       .  S
C1271      H1283   1.082       .  S
C1272      C1627   1.452       .  S
C1273      C1616   1.453       .  S
C1274      C1614   1.452       .  S
C1275      C1626   1.453       .  S
C1286      N1304   1.339       .  A
C1286      C1638   1.435       .  S
C1286      C1323   1.467       .  S
N1287      N1304   1.319       .  A
N1287      N1309   1.322       .  A
C1288      N1313   1.349       .  A
C1288      H1333   1.081       .  S
C1288      C1326   1.469       .  S
H1289      C1330   1.082       .  S
C1290      N1314   1.351       .  A
C1290      H1319   1.082       .  S
C1290      C1294   1.470       .  S
Co1291     N1857   2.101       .  S
Co1291     N1299   2.108       .  S
Co1291     N1879   2.068       .  S
Co1291     N1307   2.068       .  S
N1292      C1330   1.336       .  A
N1292      N1299   1.321       .  A
Co1293     N1296   2.067       .  S
Co1293     N1300   2.105       .  S
Co1293    Cl1335   2.447       .  S
C1294      N1332   1.338       .  A
C1294      C1631   1.438       .  S
N1295      N1302   1.321       .  A
N1295      N1325   1.332       .  A
N1295     Co1876   2.109       .  S
N1296      N1314   1.322       .  A
N1296      N1332   1.319       .  A
N1297      C1326   1.340       .  A
N1297      N1307   1.321       .  A
H1298      C1323   1.081       .  S
N1299      N1320   1.332       .  A
N1300      N1318   1.321       .  A
N1300      N1305   1.331       .  A
C1301      N1305   1.356       .  A
C1301      C1607   1.441       .  S
C1301      C1329   1.446       .  S
N1302      C1317   1.333       .  A
N1302     Co1324   2.067       .  S
C1303      N1331   1.333       .  A
C1303      H1337   1.082       .  S
C1303      C1306   1.441       .  S
C1306      N1327   1.356       .  A
C1306      C1609   1.436       .  S
N1307      N1313   1.321       .  A
N1308      C1334   1.350       .  A
N1308      N1310   1.322       .  A
N1308     Co1324   2.104       .  S
N1309      C1323   1.348       .  A
N1309     Co1839   2.101       .  S
N1310      N1338   1.320       .  A
N1310     Co1876   2.069       .  S
H1311      C1334   1.082       .  S
H1312      C1329   1.082       .  S
N1314     Co1328   2.108       .  S
N1315      N1327   1.331       .  A
N1315      N1331   1.321       .  A
C1316      N1320   1.358       .  A
C1316      C1640   1.445       .  S
C1316      C1330   1.446       .  S
C1317      H1321   1.082       .  S
C1317      C1336   1.441       .  S
N1318      C1329   1.335       .  A
N1318     Co1328   2.073       .  S
C1322      N1338   1.339       .  A
C1322      C1611   1.438       .  S
C1322      C1334   1.468       .  S
Co1324    Cl1883   2.448       .  S
N1325      C1336   1.358       .  A
C1326      C1605   1.441       .  S
Co1328     N1843   2.109       .  S
Co1328     N1858   2.069       .  S
Co1328    Cl1335   2.458       .  S
N1331     Co1839   2.067       .  S
Cl1335    Co1872   2.448       .  S
C1336      C1630   1.440       .  S
C1339      N1357   1.352       .  A
C1339      C1599   1.438       .  S
C1339      C1376   1.450       .  S
N1340      N1357   1.329       .  A
N1340      N1362   1.321       .  A
C1341      N1366   1.342       .  A
C1341      H1386   1.081       .  S
C1341      C1379   1.454       .  S
H1342      C1383   1.081       .  S
C1343      N1367   1.335       .  A
C1343      H1372   1.082       .  S
C1343      C1347   1.447       .  S
Co1344     N1384   2.076       .  S
Co1344     N1360   2.076       .  S
Co1344    Cl1388   2.434       .  S
N1345      C1383   1.342       .  A
N1345      N1352   1.321       .  A
Co1346     N1366   2.081       .  S
Co1346     N1353   2.093   1_556  S
Co1346    Cl1388   2.469       .  S
C1347      N1385   1.348       .  A
C1347      C1591   1.428       .  S
N1348      N1355   1.321       .  A
N1348      N1378   1.323       .  A
N1349      N1367   1.320       .  A
N1349      N1385   1.326       .  A
N1350      C1379   1.344       .  A
N1350      N1360   1.322       .  A
H1351      C1376   1.082       .  S
N1352      N1373   1.322       .  A
N1353      N1371   1.321       .  A
N1353      N1358   1.329       .  A
C1354      N1358   1.351       .  A
C1354      C1590   1.437       .  S
C1354      C1382   1.449       .  S
N1355      C1370   1.346       .  A
C1356      N1384   1.337       .  A
C1356      H1390   1.082       .  S
C1356      C1359   1.449       .  S
C1359      N1380   1.351       .  A
C1359      C1597   1.436       .  S
N1360      N1366   1.321       .  A
N1361      C1387   1.346       .  A
N1361      N1363   1.321       .  A
N1361     Co1377   2.098   1_554  S
N1362      C1376   1.338       .  A
N1363      N1391   1.321       .  A
N1363     Co1381   2.071       .  S
H1364      C1387   1.082       .  S
H1365      C1382   1.081       .  S
N1368      N1380   1.328       .  A
N1368      N1384   1.321       .  A
N1368     Co1377   2.097       .  S
C1369      N1373   1.344       .  A
C1369      C1604   1.429       .  S
C1369      C1383   1.455       .  S
C1370      H1374   1.082       .  S
C1370      C1389   1.461       .  S
N1371      C1382   1.337       .  A
N1371     Co1381   2.079       .  S
C1375      N1391   1.342       .  A
C1375      C1593   1.436       .  S
C1375      C1387   1.463       .  S
Co1377    Cl1388   2.473       .  S
N1378      C1389   1.345       .  A
C1379      C1601   1.428       .  S
Co1381    Cl1388   2.430   1_554  S
C1389      C1595   1.440       .  S
N1392      C1397   1.353       .  A
N1392      C1396   1.353       .  A
N1392      H1424   1.039       .  S
N1393      C1400   1.351       .  A
N1393      C1401   1.351       .  A
N1394      C1399   1.354       .  A
N1394      C1398   1.354       .  A
N1394      H1425   1.040       .  S
N1395      C1402   1.353       .  A
N1395      C1403   1.352       .  A
C1396      C1404   1.389       .  A
C1396      C1412   1.416       .  A
C1397      C1413   1.412       .  A
C1397      C1405   1.387       .  A
C1398      C1406   1.388       .  A
C1398      C1415   1.416       .  A
C1399      C1414   1.413       .  A
C1399      C1407   1.386       .  A
C1400      C1412   1.411       .  A
C1400      C1408   1.387       .  A
C1401      C1415   1.411       .  A
C1401      C1409   1.386       .  A
C1402      C1410   1.386       .  A
C1402      C1413   1.413       .  A
C1403      C1411   1.386       .  A
C1403      C1414   1.412       .  A
C1404      C1405   1.377       .  A
C1404      H1416   1.082       .  S
C1405      H1417   1.083       .  S
C1406      C1407   1.376       .  A
C1406      H1418   1.082       .  S
C1407      H1419   1.082       .  S
C1408      C1409   1.375       .  A
C1408      H1420   1.082       .  S
C1409      H1421   1.082       .  S
C1410      C1411   1.375       .  A
C1410      H1422   1.082       .  S
C1411      H1423   1.082       .  S
C1412      C1598   1.451       .  S
C1413      C1586   1.453       .  S
C1414      C1588   1.454       .  S
C1415      C1600   1.453       .  S
N1426      C1431   1.353       .  A
N1426      C1430   1.354       .  A
N1426      H1458   1.038       .  S
N1427      C1434   1.350       .  A
N1427      C1435   1.350       .  A
N1428      C1433   1.352       .  A
N1428      C1432   1.352       .  A
N1428      H1459   1.039       .  S
N1429      C1436   1.351       .  A
N1429      C1437   1.350       .  A
C1430      C1438   1.387       .  A
C1430      C1446   1.415       .  A
C1431      C1447   1.415       .  A
C1431      C1439   1.387       .  A
C1432      C1440   1.387       .  A
C1432      C1449   1.410       .  A
C1433      C1448   1.411       .  A
C1433      C1441   1.388       .  A
C1434      C1446   1.410       .  A
C1434      C1442   1.387       .  A
C1435      C1449   1.408       .  A
C1435      C1443   1.387       .  A
C1436      C1444   1.387       .  A
C1436      C1447   1.411       .  A
C1437      C1445   1.387       .  A
C1437      C1448   1.409       .  A
C1438      C1439   1.378       .  A
C1438      H1450   1.082       .  S
C1439      H1451   1.082       .  S
C1440      C1441   1.374       .  A
C1440      H1452   1.082       .  S
C1441      H1453   1.082       .  S
C1442      C1443   1.372       .  A
C1442      H1454   1.082       .  S
C1443      H1455   1.082       .  S
C1444      C1445   1.373       .  A
C1444      H1456   1.082       .  S
C1445      H1457   1.083       .  S
C1446      C1581   1.451       .  S
C1447      C1583   1.452       .  S
C1448      C1603   1.445       .  S
C1449      C1602   1.444       .  S
C1460      N1478   1.352       .  A
C1460      C1619   1.439       .  S
C1460      C1497   1.449       .  S
N1461      N1478   1.329       .  A
N1461      N1483   1.320       .  A
N1461     Co1498   2.097       .  S
C1462      N1487   1.345       .  A
C1462      H1507   1.082       .  S
C1462      C1500   1.459       .  S
H1463      C1504   1.082       .  S
C1464      N1488   1.342       .  A
C1464      H1493   1.082       .  S
C1464      C1468   1.461       .  S
Co1465     N1473   2.076       .  S
Co1465     N2029   2.078       .  S
Co1465    Cl1509   2.446       .  S
N1466      C1504   1.345       .  A
N1466      N1473   1.320       .  A
N1466     Co1467   2.094       .  S
Co1467     N1470   2.085       .  S
Co1467     N2035   2.090       .  S
Co1467     N2022   2.081       .  S
Co1467    Cl1509   2.456       .  S
C1468      N1506   1.349       .  A
C1468      C1585   1.440       .  S
N1469      N1476   1.321       .  A
N1469      N1499   1.325       .  A
N1470      N1488   1.321       .  A
N1470      N1506   1.324       .  A
N1471      C1500   1.346       .  A
N1471      N1481   1.324       .  A
H1472      C1497   1.081       .  S
N1473      N1494   1.323       .  A
N1474      N1492   1.321       .  A
N1474      N1479   1.323       .  A
N1474     Co2015   2.081       .  S
C1475      N1479   1.347       .  A
C1475      C1582   1.437       .  S
C1475      C1503   1.463       .  S
N1476      C1491   1.340       .  A
N1476     Co1498   2.086       .  S
C1477      N1505   1.337       .  A
C1477      H1511   1.082       .  S
C1477      C1480   1.450       .  S
C1480      N1501   1.351       .  A
C1480      C1618   1.435       .  S
N1481      N1487   1.320       .  A
N1481     Co2013   2.078       .  S
N1482      C1508   1.340       .  A
N1482      N1484   1.321       .  A
N1482     Co2046   2.084       .  S
N1483      C1497   1.337       .  A
N1484      N1512   1.325       .  A
H1485      C1508   1.082       .  S
H1486      C1503   1.082       .  S
N1487     Co2015   2.090       .  S
N1488     Co1502   2.091       .  S
N1489      N1501   1.328       .  A
N1489      N1505   1.320       .  A
N1489     Co2046   2.094       .  S
C1490      N1494   1.344       .  A
C1490      C1615   1.438       .  S
C1490      C1504   1.461       .  S
C1491      H1495   1.082       .  S
C1491      C1510   1.459       .  S
N1492      C1503   1.342       .  A
N1492     Co2050   2.094       .  S
C1496      N1512   1.350       .  A
C1496      C1584   1.438       .  S
C1496      C1508   1.458       .  S
Co1498     N2030   2.084       .  S
Co1498     N2037   2.094       .  S
N1499      C1510   1.351       .  A
C1500      C1613   1.438       .  S
Co1502     N2040   2.094       .  S
Co1502    Cl1509   2.448       .  S
C1510      C1587   1.440       .  S
N1513      C1518   1.355       .  A
N1513      C1517   1.354       .  A
N1513      H1545   1.039       .  S
N1514      C1521   1.351       .  A
N1514      C1522   1.353       .  A
N1515      C1520   1.350       .  A
N1515      C1519   1.353       .  A
N1515      H1546   1.038       .  S
N1516      C1523   1.351       .  A
N1516      C1524   1.351       .  A
C1517      C1525   1.388       .  A
C1517      C1533   1.419       .  A
C1518      C1534   1.418       .  A
C1518      C1526   1.388       .  A
C1519      C1527   1.387       .  A
C1519      C1536   1.412       .  A
C1520      C1535   1.411       .  A
C1520      C1528   1.388       .  A
C1521      C1533   1.411       .  A
C1521      C1529   1.386       .  A
C1522      C1536   1.413       .  A
C1522      C1530   1.387       .  A
C1523      C1531   1.386       .  A
C1523      C1534   1.409       .  A
C1524      C1532   1.388       .  A
C1524      C1535   1.412       .  A
C1525      C1526   1.380       .  A
C1525      H1537   1.082       .  S
C1526      H1538   1.083       .  S
C1527      C1528   1.377       .  A
C1527      H1539   1.082       .  S
C1528      H1540   1.083       .  S
C1529      C1530   1.371       .  A
C1529      H1541   1.082       .  S
C1530      H1542   1.082       .  S
C1531      C1532   1.371       .  A
C1531      H1543   1.083       .  S
C1532      H1544   1.082       .  S
C1533      C1612   1.454       .  S
C1534      C1610   1.453       .  S
C1535      C1592   1.444       .  S
C1536      C1589   1.453       .  S
N1547      C1552   1.357       .  A
N1547      C1551   1.358       .  A
N1547      H1579   1.038       .  S
N1548      C1555   1.351       .  A
N1548      C1556   1.352       .  A
N1549      C1554   1.353       .  A
N1549      C1553   1.353       .  A
N1549      H1580   1.036       .  S
N1550      C1557   1.352       .  A
N1550      C1558   1.354       .  A
C1551      C1559   1.388       .  A
C1551      C1567   1.422       .  A
C1552      C1568   1.422       .  A
C1552      C1560   1.388       .  A
C1553      C1561   1.388       .  A
C1553      C1570   1.414       .  A
C1554      C1569   1.414       .  A
C1554      C1562   1.387       .  A
C1555      C1567   1.412       .  A
C1555      C1563   1.387       .  A
C1556      C1570   1.415       .  A
C1556      C1564   1.387       .  A
C1557      C1565   1.388       .  A
C1557      C1568   1.414       .  A
C1558      C1566   1.387       .  A
C1558      C1569   1.415       .  A
C1559      C1560   1.379       .  A
C1559      H1571   1.082       .  S
C1560      H1572   1.082       .  S
C1561      C1562   1.376       .  A
C1561      H1573   1.082       .  S
C1562      H1574   1.082       .  S
C1563      C1564   1.373       .  A
C1563      H1575   1.083       .  S
C1564      H1576   1.082       .  S
C1565      C1566   1.371       .  A
C1565      H1577   1.082       .  S
C1566      H1578   1.082       .  S
C1567      C1608   1.457       .  S
C1568      C1606   1.457       .  S
C1569      C1596   1.455       .  S
C1570      C1594   1.452       .  S
C1581      C1582   1.207       .  T
C1583      C1584   1.207       .  T
C1585      C1586   1.208       .  T
C1587      C1588   1.209       .  T
C1589      C1590   1.208       .  T
C1591      C1592   1.202       .  T
C1593      C1594   1.207       .  T
C1595      C1596   1.209       .  T
C1597      C1598   1.207       .  T
C1599      C1600   1.208       .  T
C1601      C1602   1.202       .  T
C1603      C1604   1.202       .  T
C1605      C1606   1.210       .  T
C1607      C1608   1.210       .  T
C1609      C1610   1.208       .  T
C1611      C1612   1.208       .  T
C1613      C1614   1.207       .  T
C1615      C1616   1.208       .  T
C1617      C1618   1.206       .  T
C1619      C1620   1.209       .  T
C1621      C1622   1.210       .  T
C1623      C1624   1.207       .  T
C1625      C1626   1.207       .  T
C1627      C1628   1.207       .  T
C1629      C1630   1.210       .  T
C1631      C1632   1.209       .  T
C1633      C1634   1.203       .  T
C1635      C1636   1.205       .  T
C1637      C1638   1.207       .  T
C1639      C1640   1.212       .  T
C1641      C1642   1.205       .  T
C1643      C1644   1.208       .  T
N1645      C1650   1.356       .  A
N1645      C1649   1.357       .  A
N1645      H1677   1.039       .  S
N1646      C1653   1.351       .  A
N1646      C1654   1.352       .  A
N1647      C1652   1.352       .  A
N1647      C1651   1.352       .  A
N1647      H1678   1.038       .  S
N1648      C1655   1.350       .  A
N1648      C1656   1.352       .  A
C1649      C1657   1.388       .  A
C1649      C1665   1.421       .  A
C1650      C1666   1.419       .  A
C1650      C1658   1.388       .  A
C1651      C1659   1.387       .  A
C1651      C1668   1.412       .  A
C1652      C1667   1.410       .  A
C1652      C1660   1.387       .  A
C1653      C1665   1.411       .  A
C1653      C1661   1.386       .  A
C1654      C1668   1.414       .  A
C1654      C1662   1.387       .  A
C1655      C1663   1.388       .  A
C1655      C1666   1.410       .  A
C1656      C1664   1.387       .  A
C1656      C1667   1.412       .  A
C1657      C1658   1.380       .  A
C1657      H1669   1.082       .  S
C1658      H1670   1.083       .  S
C1659      C1660   1.377       .  A
C1659      H1671   1.082       .  S
C1660      H1672   1.082       .  S
C1661      C1662   1.373       .  A
C1661      H1673   1.082       .  S
C1662      H1674   1.082       .  S
C1663      C1664   1.371       .  A
C1663      H1675   1.083       .  S
C1664      H1676   1.082       .  S
C1665      C2187   1.459       .  S
C1666      C2185   1.451       .  S
C1667      C2189   1.448       .  S
C1668      C2192   1.453       .  S
N1679      C1684   1.351       .  A
N1679      C1683   1.354       .  A
N1679      H1711   1.039       .  S
N1680      C1687   1.351       .  A
N1680      C1688   1.350       .  A
N1681      C1686   1.352       .  A
N1681      C1685   1.352       .  A
N1681      H1712   1.039       .  S
N1682      C1689   1.355       .  A
N1682      C1690   1.355       .  A
C1683      C1691   1.386       .  A
C1683      C1699   1.412       .  A
C1684      C1700   1.416       .  A
C1684      C1692   1.391       .  A
C1685      C1693   1.387       .  A
C1685      C1702   1.411       .  A
C1686      C1701   1.415       .  A
C1686      C1694   1.390       .  A
C1687      C1699   1.408       .  A
C1687      C1695   1.386       .  A
C1688      C1702   1.408       .  A
C1688      C1696   1.386       .  A
C1689      C1697   1.387       .  A
C1689      C1700   1.422       .  A
C1690      C1698   1.386       .  A
C1690      C1701   1.421       .  A
C1691      C1692   1.372       .  A
C1691      H1703   1.082       .  S
C1692      H1704   1.082       .  S
C1693      C1694   1.374       .  A
C1693      H1705   1.083       .  S
C1694      H1706   1.082       .  S
C1695      C1696   1.372       .  A
C1695      H1707   1.082       .  S
C1696      H1708   1.082       .  S
C1697      C1698   1.379       .  A
C1697      H1709   1.082       .  S
C1698      H1710   1.082       .  S
C1699      C2183   1.449       .  S
C1700      C2180   1.455       .  S
C1701      C2177   1.457       .  S
C1702      C2182   1.445       .  S
C1713      N1731   1.351       .  A
C1713      C2184   1.433       .  S
C1713      C1750   1.447       .  S
N1714      N1731   1.328       .  A
N1714      N1736   1.321       .  A
C1715      N1740   1.345       .  A
C1715      H1760   1.081       .  S
C1715      C1753   1.458       .  S
H1716      C1757   1.081       .  S
C1717      N1741   1.336       .  A
C1717      H1746   1.081       .  S
C1717      C1721   1.447       .  S
Co1718     N1758   2.070       .  S
Co1718     N1734   2.075       .  S
Co1718    Cl1762   2.433       .  S
N1719      C1757   1.347       .  A
N1719      N1726   1.321       .  A
Co1720     N1740   2.091       .  S
Co1720     N1727   2.105       .  S
Co1720    Cl1762   2.474       .  S
C1721      N1759   1.352       .  A
C1721      C2171   1.436       .  S
N1722      N1729   1.321       .  A
N1722      N1752   1.321       .  A
N1723      N1741   1.321       .  A
N1723      N1759   1.329       .  A
N1724      C1753   1.343       .  A
N1724      N1734   1.322       .  A
H1725      C1750   1.082       .  S
N1726      N1747   1.322       .  A
N1727      N1745   1.320       .  A
N1727      N1732   1.331       .  A
C1728      N1732   1.354       .  A
C1728      C2170   1.440       .  S
C1728      C1756   1.447       .  S
N1729      C1744   1.347       .  A
C1730      N1758   1.336       .  A
C1730      H1764   1.082       .  S
C1730      C1733   1.447       .  S
C1733      N1754   1.350       .  A
C1733      C2181   1.430       .  S
N1734      N1740   1.320       .  A
N1735      C1761   1.346       .  A
N1735      N1737   1.320       .  A
N1735     Co1751   2.096       .  S
N1736      C1750   1.336       .  A
N1737      N1765   1.322       .  A
N1737     Co1755   2.076       .  S
H1738      C1761   1.081       .  S
H1739      C1756   1.081       .  S
N1742      N1754   1.327       .  A
N1742      N1758   1.321       .  A
N1742     Co1751   2.093       .  S
C1743      N1747   1.343       .  A
C1743      C2191   1.438       .  S
C1743      C1757   1.463       .  S
C1744      H1748   1.082       .  S
C1744      C1763   1.462       .  S
N1745      C1756   1.337       .  A
N1745     Co1755   2.072       .  S
C1749      N1765   1.343       .  A
C1749      C2173   1.437       .  S
C1749      C1761   1.461       .  S
Co1751    Cl1762   2.472       .  S
N1752      C1763   1.342       .  A
C1753      C2190   1.433       .  S
Co1755    Cl1762   2.430       .  S
C1763      C2176   1.436       .  S
N1766      C1771   1.356       .  A
N1766      C1770   1.353       .  A
N1766      H1798   1.038       .  S
N1767      C1774   1.352       .  A
N1767      C1775   1.353       .  A
N1768      C1773   1.354       .  A
N1768      C1772   1.355       .  A
N1768      H1799   1.037       .  S
N1769      C1776   1.352       .  A
N1769      C1777   1.350       .  A
C1770      C1778   1.387       .  A
C1770      C1786   1.414       .  A
C1771      C1787   1.418       .  A
C1771      C1779   1.388       .  A
C1772      C1780   1.386       .  A
C1772      C1789   1.415       .  A
C1773      C1788   1.419       .  A
C1773      C1781   1.389       .  A
C1774      C1786   1.412       .  A
C1774      C1782   1.387       .  A
C1775      C1789   1.412       .  A
C1775      C1783   1.386       .  A
C1776      C1784   1.386       .  A
C1776      C1787   1.412       .  A
C1777      C1785   1.387       .  A
C1777      C1788   1.413       .  A
C1778      C1779   1.376       .  A
C1778      H1790   1.082       .  S
C1779      H1791   1.082       .  S
C1780      C1781   1.376       .  A
C1780      H1792   1.083       .  S
C1781      H1793   1.082       .  S
C1782      C1783   1.373       .  A
C1782      H1794   1.082       .  S
C1783      H1795   1.082       .  S
C1784      C1785   1.375       .  A
C1784      H1796   1.082       .  S
C1785      H1797   1.082       .  S
C1786      C2165   1.450       .  S
C1787      C2169   1.456       .  S
C1788      C2172   1.452       .  S
C1789      C2168   1.455       .  S
N1800      C1805   1.354       .  A
N1800      C1804   1.354       .  A
N1800      H1832   1.038       .  S
N1801      C1808   1.351       .  A
N1801      C1809   1.351       .  A
N1802      C1807   1.354       .  A
N1802      C1806   1.354       .  A
N1802      H1833   1.038       .  S
N1803      C1810   1.351       .  A
N1803      C1811   1.351       .  A
C1804      C1812   1.388       .  A
C1804      C1820   1.417       .  A
C1805      C1821   1.415       .  A
C1805      C1813   1.387       .  A
C1806      C1814   1.388       .  A
C1806      C1823   1.417       .  A
C1807      C1822   1.414       .  A
C1807      C1815   1.387       .  A
C1808      C1820   1.412       .  A
C1808      C1816   1.387       .  A
C1809      C1823   1.412       .  A
C1809      C1817   1.387       .  A
C1810      C1818   1.387       .  A
C1810      C1821   1.411       .  A
C1811      C1819   1.387       .  A
C1811      C1822   1.412       .  A
C1812      C1813   1.377       .  A
C1812      H1824   1.082       .  S
C1813      H1825   1.082       .  S
C1814      C1815   1.377       .  A
C1814      H1826   1.082       .  S
C1815      H1827   1.082       .  S
C1816      C1817   1.374       .  A
C1816      H1828   1.082       .  S
C1817      H1829   1.082       .  S
C1818      C1819   1.374       .  A
C1818      H1830   1.082       .  S
C1819      H1831   1.082       .  S
C1820      C2175   1.452       .  S
C1821      C2164   1.453       .  S
C1822      C2162   1.452       .  S
C1823      C2174   1.453       .  S
C1834      N1852   1.339       .  A
C1834      C2186   1.435       .  S
C1834      C1871   1.467       .  S
N1835      N1852   1.319       .  A
N1835      N1857   1.322       .  A
C1836      N1861   1.349       .  A
C1836      H1881   1.081       .  S
C1836      C1874   1.469       .  S
H1837      C1878   1.082       .  S
C1838      N1862   1.351       .  A
C1838      H1867   1.082       .  S
C1838      C1842   1.470       .  S
Co1839     N1847   2.109   1_545  S
Co1839     N1855   2.068   1_545  S
N1840      C1878   1.336       .  A
N1840      N1847   1.321       .  A
Co1841     N1844   2.067       .  S
Co1841     N1848   2.105       .  S
Co1841    Cl1883   2.447   1_565  S
C1842      N1880   1.338       .  A
C1842      C2179   1.438       .  S
N1843      N1850   1.321       .  A
N1843      N1873   1.332       .  A
N1844      N1862   1.322       .  A
N1844      N1880   1.319       .  A
N1845      C1874   1.340       .  A
N1845      N1855   1.321       .  A
H1846      C1871   1.081       .  S
N1847      N1868   1.332       .  A
N1848      N1866   1.321       .  A
N1848      N1853   1.331       .  A
C1849      N1853   1.356       .  A
C1849      C2155   1.441       .  S
C1849      C1877   1.446       .  S
N1850      C1865   1.333       .  A
N1850     Co1872   2.067       .  S
C1851      N1879   1.333       .  A
C1851      H1885   1.082       .  S
C1851      C1854   1.441       .  S
C1854      N1875   1.356       .  A
C1854      C2157   1.437       .  S
N1855      N1861   1.321       .  A
N1856      C1882   1.350       .  A
N1856      N1858   1.322       .  A
N1856     Co1872   2.104       .  S
N1857      C1871   1.348       .  A
N1858      N1886   1.320       .  A
H1859      C1882   1.082       .  S
H1860      C1877   1.082       .  S
N1862     Co1876   2.108   1_565  S
N1863      N1875   1.331       .  A
N1863      N1879   1.321       .  A
C1864      N1868   1.358       .  A
C1864      C2188   1.445       .  S
C1864      C1878   1.446       .  S
C1865      H1869   1.082       .  S
C1865      C1884   1.441       .  S
N1866      C1877   1.335       .  A
N1866     Co1876   2.073   1_565  S
C1870      N1886   1.339       .  A
C1870      C2159   1.437       .  S
C1870      C1882   1.468       .  S
N1873      C1884   1.358       .  A
C1874      C2153   1.441       .  S
Co1876    Cl1883   2.458       .  S
C1884      C2178   1.440       .  S
C1887      N1905   1.352       .  A
C1887      C2147   1.438       .  S
C1887      C1924   1.450       .  S
N1888      N1905   1.329       .  A
N1888      N1910   1.321       .  A
C1889      N1914   1.342       .  A
C1889      H1934   1.081       .  S
C1889      C1927   1.454       .  S
H1890      C1931   1.081       .  S
C1891      N1915   1.335       .  A
C1891      H1920   1.082       .  S
C1891      C1895   1.448       .  S
Co1892     N1932   2.076       .  S
Co1892     N1908   2.075       .  S
Co1892    Cl1936   2.434       .  S
N1893      C1931   1.342       .  A
N1893      N1900   1.321       .  A
Co1894     N1914   2.081       .  S
Co1894     N1901   2.093   1_556  S
Co1894    Cl1936   2.469       .  S
C1895      N1933   1.349       .  A
C1895      C2139   1.429       .  S
N1896      N1903   1.321       .  A
N1896      N1926   1.323       .  A
N1897      N1915   1.320       .  A
N1897      N1933   1.326       .  A
N1898      C1927   1.344       .  A
N1898      N1908   1.322       .  A
H1899      C1924   1.082       .  S
N1900      N1921   1.322       .  A
N1901      N1919   1.321       .  A
N1901      N1906   1.329       .  A
C1902      N1906   1.351       .  A
C1902      C2138   1.438       .  S
C1902      C1930   1.449       .  S
N1903      C1918   1.346       .  A
C1904      N1932   1.337       .  A
C1904      H1938   1.082       .  S
C1904      C1907   1.449       .  S
C1907      N1928   1.351       .  A
C1907      C2145   1.436       .  S
N1908      N1914   1.321       .  A
N1909      C1935   1.346       .  A
N1909      N1911   1.321       .  A
N1909     Co1925   2.098   1_554  S
N1910      C1924   1.338       .  A
N1911      N1939   1.321       .  A
N1911     Co1929   2.070       .  S
H1912      C1935   1.082       .  S
H1913      C1930   1.082       .  S
N1916      N1928   1.328       .  A
N1916      N1932   1.321       .  A
N1916     Co1925   2.097       .  S
C1917      N1921   1.345       .  A
C1917      C2152   1.429       .  S
C1917      C1931   1.455       .  S
C1918      H1922   1.082       .  S
C1918      C1937   1.461       .  S
N1919      C1930   1.337       .  A
N1919     Co1929   2.079       .  S
C1923      N1939   1.342       .  A
C1923      C2141   1.435       .  S
C1923      C1935   1.463       .  S
Co1925    Cl1936   2.473       .  S
N1926      C1937   1.345       .  A
C1927      C2149   1.428       .  S
Co1929    Cl1936   2.430   1_554  S
C1937      C2143   1.440       .  S
N1940      C1945   1.353       .  A
N1940      C1944   1.353       .  A
N1940      H1972   1.039       .  S
N1941      C1948   1.351       .  A
N1941      C1949   1.351       .  A
N1942      C1947   1.354       .  A
N1942      C1946   1.354       .  A
N1942      H1973   1.040       .  S
N1943      C1950   1.353       .  A
N1943      C1951   1.352       .  A
C1944      C1952   1.389       .  A
C1944      C1960   1.416       .  A
C1945      C1961   1.412       .  A
C1945      C1953   1.387       .  A
C1946      C1954   1.388       .  A
C1946      C1963   1.416       .  A
C1947      C1962   1.413       .  A
C1947      C1955   1.386       .  A
C1948      C1960   1.411       .  A
C1948      C1956   1.387       .  A
C1949      C1963   1.410       .  A
C1949      C1957   1.386       .  A
C1950      C1958   1.386       .  A
C1950      C1961   1.413       .  A
C1951      C1959   1.386       .  A
C1951      C1962   1.412       .  A
C1952      C1953   1.377       .  A
C1952      H1964   1.082       .  S
C1953      H1965   1.083       .  S
C1954      C1955   1.376       .  A
C1954      H1966   1.082       .  S
C1955      H1967   1.082       .  S
C1956      C1957   1.375       .  A
C1956      H1968   1.082       .  S
C1957      H1969   1.082       .  S
C1958      C1959   1.375       .  A
C1958      H1970   1.082       .  S
C1959      H1971   1.082       .  S
C1960      C2146   1.451       .  S
C1961      C2134   1.453       .  S
C1962      C2136   1.454       .  S
C1963      C2148   1.452       .  S
N1974      C1979   1.353       .  A
N1974      C1978   1.354       .  A
N1974      H2006   1.038       .  S
N1975      C1982   1.350       .  A
N1975      C1983   1.350       .  A
N1976      C1981   1.352       .  A
N1976      C1980   1.352       .  A
N1976      H2007   1.038       .  S
N1977      C1984   1.351       .  A
N1977      C1985   1.350       .  A
C1978      C1986   1.387       .  A
C1978      C1994   1.415       .  A
C1979      C1995   1.415       .  A
C1979      C1987   1.387       .  A
C1980      C1988   1.388       .  A
C1980      C1997   1.410       .  A
C1981      C1996   1.411       .  A
C1981      C1989   1.388       .  A
C1982      C1994   1.410       .  A
C1982      C1990   1.387       .  A
C1983      C1997   1.408       .  A
C1983      C1991   1.387       .  A
C1984      C1992   1.387       .  A
C1984      C1995   1.411       .  A
C1985      C1993   1.387       .  A
C1985      C1996   1.409       .  A
C1986      C1987   1.378       .  A
C1986      H1998   1.082       .  S
C1987      H1999   1.082       .  S
C1988      C1989   1.374       .  A
C1988      H2000   1.082       .  S
C1989      H2001   1.082       .  S
C1990      C1991   1.372       .  A
C1990      H2002   1.082       .  S
C1991      H2003   1.082       .  S
C1992      C1993   1.373       .  A
C1992      H2004   1.082       .  S
C1993      H2005   1.083       .  S
C1994      C2129   1.451       .  S
C1995      C2131   1.452       .  S
C1996      C2151   1.445       .  S
C1997      C2150   1.444       .  S
C2008      N2026   1.352       .  A
C2008      C2167   1.439       .  S
C2008      C2045   1.449       .  S
N2009      N2026   1.329       .  A
N2009      N2031   1.320       .  A
N2009     Co2046   2.097   1_565  S
C2010      N2035   1.345       .  A
C2010      H2055   1.082       .  S
C2010      C2048   1.458       .  S
H2011      C2052   1.082       .  S
C2012      N2036   1.342       .  A
C2012      H2041   1.082       .  S
C2012      C2016   1.461       .  S
Co2013     N2021   2.076   1_545  S
Co2013    Cl2057   2.446       .  S
N2014      C2052   1.346       .  A
N2014      N2021   1.320       .  A
N2014     Co2015   2.094   1_565  S
Co2015     N2018   2.085   1_545  S
Co2015    Cl2057   2.456       .  S
C2016      N2054   1.349       .  A
C2016      C2133   1.440       .  S
N2017      N2024   1.321       .  A
N2017      N2047   1.325       .  A
N2018      N2036   1.321       .  A
N2018      N2054   1.324       .  A
N2019      C2048   1.346       .  A
N2019      N2029   1.324       .  A
H2020      C2045   1.081       .  S
N2021      N2042   1.323       .  A
N2022      N2040   1.321       .  A
N2022      N2027   1.323       .  A
C2023      N2027   1.347       .  A
C2023      C2130   1.437       .  S
C2023      C2051   1.463       .  S
N2024      C2039   1.340       .  A
N2024     Co2046   2.086   1_565  S
C2025      N2053   1.337       .  A
C2025      H2059   1.082       .  S
C2025      C2028   1.450       .  S
C2028      N2049   1.351       .  A
C2028      C2166   1.436       .  S
N2029      N2035   1.320       .  A
N2030      C2056   1.340       .  A
N2030      N2032   1.321       .  A
N2031      C2045   1.337       .  A
N2032      N2060   1.325       .  A
H2033      C2056   1.082       .  S
H2034      C2051   1.082       .  S
N2036     Co2050   2.090   1_565  S
N2037      N2049   1.328       .  A
N2037      N2053   1.320       .  A
C2038      N2042   1.344       .  A
C2038      C2163   1.438       .  S
C2038      C2052   1.461       .  S
C2039      H2043   1.082       .  S
C2039      C2058   1.459       .  S
N2040      C2051   1.342       .  A
C2044      N2060   1.350       .  A
C2044      C2132   1.438       .  S
C2044      C2056   1.458       .  S
N2047      C2058   1.351       .  A
C2048      C2161   1.437       .  S
Co2050    Cl2057   2.448       .  S
C2058      C2135   1.440       .  S
N2061      C2066   1.355       .  A
N2061      C2065   1.354       .  A
N2061      H2093   1.039       .  S
N2062      C2069   1.351       .  A
N2062      C2070   1.353       .  A
N2063      C2068   1.350       .  A
N2063      C2067   1.353       .  A
N2063      H2094   1.038       .  S
N2064      C2071   1.351       .  A
N2064      C2072   1.351       .  A
C2065      C2073   1.388       .  A
C2065      C2081   1.418       .  A
C2066      C2082   1.418       .  A
C2066      C2074   1.388       .  A
C2067      C2075   1.387       .  A
C2067      C2084   1.412       .  A
C2068      C2083   1.411       .  A
C2068      C2076   1.388       .  A
C2069      C2081   1.411       .  A
C2069      C2077   1.386       .  A
C2070      C2084   1.413       .  A
C2070      C2078   1.387       .  A
C2071      C2079   1.386       .  A
C2071      C2082   1.409       .  A
C2072      C2080   1.388       .  A
C2072      C2083   1.412       .  A
C2073      C2074   1.380       .  A
C2073      H2085   1.082       .  S
C2074      H2086   1.083       .  S
C2075      C2076   1.377       .  A
C2075      H2087   1.082       .  S
C2076      H2088   1.083       .  S
C2077      C2078   1.371       .  A
C2077      H2089   1.082       .  S
C2078      H2090   1.082       .  S
C2079      C2080   1.371       .  A
C2079      H2091   1.083       .  S
C2080      H2092   1.082       .  S
C2081      C2160   1.453       .  S
C2082      C2158   1.453       .  S
C2083      C2140   1.444       .  S
C2084      C2137   1.453       .  S
N2095      C2100   1.357       .  A
N2095      C2099   1.358       .  A
N2095      H2127   1.038       .  S
N2096      C2103   1.351       .  A
N2096      C2104   1.352       .  A
N2097      C2102   1.353       .  A
N2097      C2101   1.353       .  A
N2097      H2128   1.036       .  S
N2098      C2105   1.352       .  A
N2098      C2106   1.354       .  A
C2099      C2107   1.388       .  A
C2099      C2115   1.422       .  A
C2100      C2116   1.422       .  A
C2100      C2108   1.388       .  A
C2101      C2109   1.388       .  A
C2101      C2118   1.414       .  A
C2102      C2117   1.414       .  A
C2102      C2110   1.387       .  A
C2103      C2115   1.412       .  A
C2103      C2111   1.387       .  A
C2104      C2118   1.415       .  A
C2104      C2112   1.387       .  A
C2105      C2113   1.388       .  A
C2105      C2116   1.414       .  A
C2106      C2114   1.386       .  A
C2106      C2117   1.415       .  A
C2107      C2108   1.379       .  A
C2107      H2119   1.082       .  S
C2108      H2120   1.082       .  S
C2109      C2110   1.375       .  A
C2109      H2121   1.082       .  S
C2110      H2122   1.082       .  S
C2111      C2112   1.373       .  A
C2111      H2123   1.083       .  S
C2112      H2124   1.082       .  S
C2113      C2114   1.371       .  A
C2113      H2125   1.082       .  S
C2114      H2126   1.082       .  S
C2115      C2156   1.457       .  S
C2116      C2154   1.457       .  S
C2117      C2144   1.455       .  S
C2118      C2142   1.451       .  S
C2129      C2130   1.207       .  T
C2131      C2132   1.207       .  T
C2133      C2134   1.208       .  T
C2135      C2136   1.209       .  T
C2137      C2138   1.208       .  T
C2139      C2140   1.202       .  T
C2141      C2142   1.206       .  T
C2143      C2144   1.209       .  T
C2145      C2146   1.207       .  T
C2147      C2148   1.207       .  T
C2149      C2150   1.202       .  T
C2151      C2152   1.202       .  T
C2153      C2154   1.210       .  T
C2155      C2156   1.210       .  T
C2157      C2158   1.208       .  T
C2159      C2160   1.208       .  T
C2161      C2162   1.207       .  T
C2163      C2164   1.208       .  T
C2165      C2166   1.206       .  T
C2167      C2168   1.209       .  T
C2169      C2170   1.210       .  T
C2171      C2172   1.207       .  T
C2173      C2174   1.207       .  T
C2175      C2176   1.207       .  T
C2177      C2178   1.210       .  T
C2179      C2180   1.209       .  T
C2181      C2182   1.203       .  T
C2183      C2184   1.205       .  T
C2185      C2186   1.207       .  T
C2187      C2188   1.212       .  T
C2189      C2190   1.205       .  T
C2191      C2192   1.208       .  T
