geometry optimzed in LAMMPS
_audit_creation_date              2020-11-30 
_audit_creation_method            'lammps2cif' 
_symmetry_space_group_name_H-M    'P1' 
_symmetry_Int_Tables_number       1 
_symmetry_cell_setting            triclinic 
loop_ 
_symmetry_equiv_pos_as_xyz 
  x,y,z 
_cell_length_a                    24.72522273 
_cell_length_b                    24.558571224186355 
_cell_length_c                    24.6683032942891 
_cell_angle_alpha                 89.08855381495157 
_cell_angle_beta                  92.38496201572175 
_cell_angle_gamma                 91.42806115693374 
loop_ 
_atom_site_label 
_atom_site_type_symbol 
_atom_site_fract_x 
_atom_site_fract_y 
_atom_site_fract_z 
_atom_site_charge 
O1          O  0.32584668  0.53187780  0.91775178    -0.76700
C2          C  0.45644252  0.64514160  0.94701537     0.84400
O3          O  0.48985875  0.44180752  0.86035703    -0.77800
O4          O  0.56402164  0.52765441  0.02453685    -0.79300
O5          O  0.37542255  0.49685623  0.08212678    -0.79100
O6          O  0.30531632  0.46474455  0.97570343    -0.77700
Zn7        Zn  0.40750298  0.53318446  0.90862365     1.55700
O8          O  0.45867884  0.52735323  0.10277913    -0.79100
Cd9        Cd  0.38243015  0.45729942  0.01020579     1.59700
Cd10       Cd  0.48783050  0.43753623  0.94365604     1.59600
O11         O  0.40382593  0.37760954  0.02970200    -0.79100
O12         O  0.44078425  0.49540752  0.97002392    -1.89600
Cd13       Cd  0.48181275  0.54755064  0.02225951     1.59900
O14         O  0.47133909  0.35892946  0.97632111    -0.79000
O15         O  0.47472268  0.63037240  0.99429396    -0.77700
C16         C  0.47154990  0.47481262  0.82390552     0.84800
C17         C  0.29142988  0.50503322  0.94573644     0.84500
O18         O  0.43222352  0.61126570  0.91513458    -0.76600
C19         C  0.41384215  0.50539775  0.11690911     0.85300
O20         O  0.43610861  0.50988767  0.83424502    -0.76700
C21         C  0.43926680  0.34508862  0.01373267     0.85400
C22         C  0.58933132  0.48907573  0.00339240     0.85800
O23         O  0.56619829  0.45508044  0.97097136    -0.79200
O24         O  0.67039883  0.07756691  0.51298782    -0.76700
C25         C  0.50660670  0.15451722  0.46386209     0.84400
O26         O  0.54942785  0.98933851  0.62393648    -0.77800
O27         O  0.42084012  0.00993982  0.44920665    -0.79300
O28         O  0.59427198  0.95788279  0.36898009    -0.79100
O29         O  0.68941885  0.99821197  0.47588891    -0.77700
Zn30       Zn  0.58842371  0.07664044  0.51595423     1.55700
O31         O  0.51368836  0.99699259  0.35596946    -0.79100
Cd32       Cd  0.61229883  0.96918949  0.45205026     1.59700
Cd33       Cd  0.51942748  0.96308841  0.54313762     1.59600
O34         O  0.61051904  0.89066486  0.48377499    -0.79100
O35         O  0.55486829  0.01115004  0.48614534    -1.89600
Cd36       Cd  0.49947462  0.03385292  0.42920104     1.59900
O37         O  0.52818028  0.87979861  0.51571321    -0.79000
O38         O  0.49235908  0.11854185  0.42867346    -0.77700
C39         C  0.57174910  0.03648366  0.63338770     0.84800
C40         C  0.70354019  0.04008865  0.50344548     0.84500
O41         O  0.54582142  0.14677783  0.49826987    -0.76600
C42         C  0.55100232  0.96659825  0.34021669     0.85300
O43         O  0.58380762  0.06810824  0.59439409    -0.76700
C44         C  0.56852707  0.86090336  0.49114361     0.85400
C45         C  0.40506373  0.00274057  0.49726592     0.85800
O46         O  0.43732997  0.98594418  0.53583563    -0.79200
O47         O  0.01138267  0.51256133  0.66231804    -0.76700
C48         C  0.13913745  0.51796388  0.52420927     0.84400
O49         O  0.99453379  0.65299526  0.51679733    -0.77800
O50         O  0.00369422  0.49327113  0.38945133    -0.79300
O51         O  0.95443269  0.38165231  0.54433689    -0.79100
O52         O  0.93148375  0.47449465  0.63653484    -0.77700
Zn53       Zn  0.04113948  0.53592401  0.58643859     1.55700
O54         O  0.02842842  0.38851193  0.49503526    -0.79100
Cd55       Cd  0.93399609  0.46336194  0.55346058     1.59700
Cd56       Cd  0.95973491  0.57837089  0.48923356     1.59600
O57         O  0.85987307  0.48456730  0.51425739    -0.79100
O58         O  0.99221275  0.51273560  0.52601102    -1.89600
Cd59       Cd  0.03206223  0.47211288  0.47099558     1.59900
O60         O  0.87474331  0.57155875  0.48871772    -0.79000
O61         O  0.11079992  0.50286041  0.48228132    -0.77700
C62         C  0.03252191  0.65901835  0.55303956     0.84800
C63         C  0.96469470  0.49239704  0.67358460     0.84500
O64         O  0.11985844  0.51737639  0.57160771    -0.76600
C65         C  0.99582126  0.36055143  0.52442866     0.85300
O66         O  0.04916799  0.61862932  0.58190068    -0.76700
C67         C  0.84357455  0.52929432  0.49238195     0.85400
C68         C  0.98412866  0.53908172  0.37326343     0.85800
O69         O  0.97415017  0.57606554  0.40701329    -0.79200
O70         O  0.13650119  0.91642298  0.00209320    -0.76700
C71         C  0.96794967  0.84420574  0.06510097     0.84400
O72         O  0.02509683  0.98906178  0.88899775    -0.77800
O73         O  0.88658367  0.99455405  0.03955244    -0.79300
O74         O  0.08440044  0.00726703  0.13969024    -0.79100
O75         O  0.15232840  0.00388631  0.02132085    -0.77700
Zn76       Zn  0.05143262  0.91135471  0.00055503     1.55700
O77         O  0.99601383  0.00086697  0.15547214    -0.79100
Cd78       Cd  0.08113655  0.02174945  0.05673356     1.59700
Cd79       Cd  0.99284661  0.02544355  0.95839977     1.59600
O80         O  0.06737135  0.10376330  0.04240301    -0.79100
O81         O  0.02065867  0.98023301  0.02210691    -1.89600
Cd82       Cd  0.96390018  0.97001464  0.07718891     1.59900
O83         O  0.00994545  0.11301253  0.97125018    -0.79000
O84         O  0.95049036  0.88768451  0.08495922    -0.77700
C85         C  0.03900862  0.93959741  0.88161154     0.84800
C86         C  0.16696203  0.95960374  0.00097356     0.84500
O87         O  0.00934130  0.84468941  0.03517733    -0.76600
C88         C  0.04577961  0.00939568  0.17226868     0.85300
O89         O  0.04047401  0.90429317  0.91996426    -0.76700
C90         C  0.03979456  0.13438800  0.00977347     0.85400
C91         C  0.87258214  0.00565090  0.98954590     0.85800
O92         O  0.90829196  0.01376902  0.95391551    -0.79200
N93         N  0.68956141  0.47110508  0.00229857    -0.01700
C94         C  0.64178339  0.47286895  0.02769452     0.00900
C95         C  0.63997705  0.43115969  0.06622685    -0.21900
C96         C  0.68724958  0.40340725  0.06439708    -0.22200
C97         C  0.71690162  0.42933660  0.02539285     0.00800
H98         H  0.60568225  0.41915931  0.09000213     0.14600
H99         H  0.69937667  0.36916911  0.08982767     0.14700
N100        N  0.19633986  0.50622629  0.98076401    -0.01700
C101        C  0.23748215  0.52865564  0.95140559     0.00900
C102        C  0.23265266  0.58433354  0.94523065    -0.21900
C103        C  0.18958218  0.59810373  0.97395730    -0.22200
C104        C  0.16936600  0.55053522  0.99668203     0.00800
H105        H  0.26110859  0.61277740  0.92719417     0.14600
H106        H  0.17677976  0.63904609  0.98079347     0.14700
N107        N  0.97473626  0.52553426  0.26893832    -0.01700
C108        C  0.96115487  0.54890610  0.31676384     0.00900
C109        C  0.90903879  0.56818541  0.31275906    -0.21900
C110        C  0.88639207  0.54966464  0.26538301    -0.22200
C111        C  0.92620741  0.52153459  0.24103217     0.00800
H112        H  0.88732194  0.58707478  0.34438892     0.14600
H113        H  0.84404829  0.55193332  0.25270957     0.14700
N114        N  0.01220182  0.23743420  0.00136962    -0.01700
C115        C  0.04102874  0.19456107  0.02444856     0.00900
C116        C  0.05525611  0.20566945  0.07831064    -0.21900
C117        C  0.02966954  0.25141493  0.09147570    -0.22200
C118        C  0.00189604  0.26835206  0.04516206     0.00800
H119        H  0.07543754  0.17903658  0.10762593     0.14600
H120        H  0.02726327  0.26762113  0.13184383     0.14700
N121        N  0.95203370  0.48225047  0.77787172    -0.01700
C122        C  0.94100493  0.50287169  0.72660509     0.00900
C123        C  0.89871799  0.53854199  0.72729820    -0.21900
C124        C  0.88452409  0.54214388  0.77983795    -0.22200
C125        C  0.91739632  0.50801857  0.80984543     0.00800
H126        H  0.88101110  0.56091109  0.69307301     0.14600
H127        H  0.85463157  0.56815642  0.79522026     0.14700
O128        O  0.11986796  0.27291686  0.77942272    -0.76700
C129        C  0.18600416  0.42741639  0.75453630     0.84400
O130        O  0.20695337  0.29148097  0.91818330    -0.77800
O131        O  0.13426575  0.47857138  0.91391243    -0.79300
O132        O  0.98296498  0.39733371  0.81289096    -0.79100
O133        O  0.03129928  0.26504977  0.78699146    -0.77700
Zn134      Zn  0.15035946  0.33791450  0.80766329     1.55700
O135        O  0.04192079  0.46823489  0.80550733    -0.79100
Cd136      Cd  0.02985710  0.32928704  0.84434331     1.59700
Cd137      Cd  0.14077709  0.34067786  0.92981982     1.59600
O138        O  0.00763927  0.28563718  0.91666890    -0.79100
O139        O  0.10499792  0.36185405  0.85958892    -1.89600
Cd140      Cd  0.11317336  0.44104726  0.84292886     1.59900
O141        O  0.08450460  0.28988938  0.96860672    -0.79000
O142        O  0.18006405  0.45787954  0.79472189    -0.77700
C143        C  0.23701187  0.29139741  0.87748370     0.84800
C144        C  0.07560347  0.24760548  0.76992382     0.84500
O145        O  0.15253258  0.38872805  0.74582601    -0.76600
C146        C  0.99451586  0.44701923  0.79820921     0.85300
O147        O  0.22495496  0.31858503  0.83459267    -0.76700
C148        C  0.03604478  0.27111952  0.95922012     0.85400
C149        C  0.16479251  0.46372865  0.95423715     0.85800
O150        O  0.17188322  0.41340568  0.96693144    -0.79200
N151        N  0.94251771  0.74348389  0.05586262    -0.01700
C152        C  0.93225470  0.79488306  0.07147560     0.00900
C153        C  0.87734887  0.80010589  0.07843195    -0.21900
C154        C  0.85298769  0.75117545  0.06536882    -0.22200
C155        C  0.89365447  0.71738892  0.05087504     0.00800
H156        H  0.85644725  0.83715639  0.08647506     0.14600
H157        H  0.80976652  0.74334319  0.06073497     0.14700
O158        O  0.77209520  0.71092994  0.86937601    -0.76700
C159        C  0.89340417  0.68699508  0.79610067     0.84400
O160        O  0.76587482  0.52261413  0.79591545    -0.77800
O161        O  0.93979156  0.54256181  0.89647820    -0.79300
O162        O  0.83518061  0.64672905  0.02012349    -0.79100
O163        O  0.73615695  0.69201869  0.94801073    -0.77700
Zn164      Zn  0.79454651  0.64159325  0.84336340     1.55700
O165        O  0.91165308  0.66242088  0.97517235    -0.79100
Cd166      Cd  0.77913339  0.62083504  0.96172059     1.59700
Cd167      Cd  0.79963068  0.52202552  0.87634170     1.59600
O168        O  0.72585526  0.55874168  0.98702384    -0.79100
O169        O  0.82185264  0.59847586  0.89867339    -1.89600
Cd170      Cd  0.90145728  0.61828499  0.90262531     1.59900
O171        O  0.74133190  0.49284916  0.92843745    -0.79000
O172        O  0.92241369  0.67426534  0.83843185    -0.77700
C173        C  0.73692743  0.56321991  0.78238241     0.84800
C174        C  0.74558109  0.72500234  0.90919563     0.84500
O175        O  0.84620045  0.66610468  0.78791167    -0.76600
C176        C  0.88116438  0.67080062  0.01495583     0.85300
O177        O  0.73055573  0.60088363  0.81570262    -0.76700
C178        C  0.71710052  0.51062163  0.96918961     0.85400
C179        C  0.91501636  0.50496931  0.86911040     0.85800
O180        O  0.87291607  0.48196607  0.88814303    -0.79200
O181        O  0.87284097  0.33651502  0.24361927    -0.76700
C182        C  0.72537329  0.39339465  0.20163688     0.84400
O183        O  0.78529276  0.26391214  0.07302609    -0.77800
O184        O  0.80629031  0.45510689  0.04909999    -0.79300
O185        O  0.94517589  0.44617939  0.18534105    -0.79100
O186        O  0.94457994  0.31147977  0.20213151    -0.77700
Zn187      Zn  0.82249698  0.32644012  0.18100745     1.55700
O188        O  0.86531983  0.48734372  0.17462166    -0.79100
Cd189      Cd  0.92871153  0.37289283  0.14504206     1.59700
Cd190      Cd  0.83771431  0.32857530  0.05585579     1.59600
O191        O  0.97149217  0.35086483  0.07870568    -0.79100
O192        O  0.84992784  0.36823367  0.12522815    -1.89600
Cd193      Cd  0.81346456  0.43844345  0.13017577     1.59900
O194        O  0.91125747  0.29698603  0.03330918    -0.79000
O195        O  0.74077748  0.43478955  0.17376595    -0.77700
C196        C  0.78308750  0.23610898  0.11696313     0.84800
C197        C  0.91380608  0.30724421  0.24189746     0.84500
O198        O  0.75258959  0.35042692  0.20401109    -0.76600
C199        C  0.91288110  0.48407177  0.19621477     0.85300
O200        O  0.81141677  0.24910679  0.15924709    -0.76700
C201        C  0.95988605  0.30959219  0.04891648     0.85400
C202        C  0.77515116  0.42270884  0.02209278     0.85800
O203        O  0.79241034  0.37827193  0.00419963    -0.79200
O204        O  0.19895136  0.63694245  0.23111013    -0.76700
C205        C  0.20296353  0.72148816  0.07208424     0.84400
O206        O  0.06301034  0.73181531  0.24070746    -0.77800
O207        O  0.02518831  0.70154561  0.05034232    -0.79300
O208        O  0.13855869  0.53199925  0.08632384    -0.79100
O209        O  0.17759433  0.54951295  0.21873524    -0.77700
Zn210      Zn  0.16223853  0.67948498  0.17413587     1.55700
O211        O  0.09250767  0.58806267  0.03063537    -0.79100
Cd212      Cd  0.11249281  0.56041325  0.16245320     1.59700
Cd213      Cd  0.04070019  0.66960576  0.18761902     1.59600
O214        O  0.04580431  0.52824493  0.20643000    -0.79100
O215        O  0.10110049  0.64098998  0.14832295    -1.89600
Cd216      Cd  0.09464628  0.66087698  0.06977952     1.59900
O217        O  0.01030952  0.60604426  0.23329972    -0.79000
O218        O  0.15758417  0.71386714  0.04677579    -0.77700
C219        C  0.10622246  0.76069409  0.23869042     0.84800
C220        C  0.20414647  0.58713720  0.24383386     0.84500
O221        O  0.21373005  0.69877139  0.11761323    -0.76600
C222        C  0.12904082  0.55308646  0.03897890     0.85300
O223        O  0.14407277  0.74840773  0.20828277    -0.76700
C224        C  0.01378959  0.55417879  0.23621365     0.85400
C225        C  0.98702663  0.71487417  0.07987870     0.85800
O226        O  0.98645222  0.70315496  0.13061762    -0.79200
N227        N  0.47341415  0.24827920  0.03021704    -0.01700
C228        C  0.44719232  0.29353208  0.04550604     0.00900
C229        C  0.43631906  0.29055557  0.09985934    -0.21900
C230        C  0.45761330  0.24317589  0.11975464    -0.22200
C231        C  0.48063430  0.21840684  0.07676956     0.00800
H232        H  0.41779920  0.32128100  0.12315276     0.14600
H233        H  0.45977998  0.23026163  0.16194258     0.14700
N234        N  0.47913014  0.74878059  0.94495976    -0.01700
C235        C  0.47080704  0.69883751  0.92188090     0.00900
C236        C  0.48459800  0.70090468  0.86818860    -0.21900
C237        C  0.50222967  0.75280953  0.85755180    -0.22200
C238        C  0.49954628  0.78111203  0.90514083     0.00800
H239        H  0.48389563  0.66750497  0.83997772     0.14600
H240        H  0.51719530  0.76757560  0.82011352     0.14700
N241        N  0.53583838  0.93898971  0.24130100    -0.01700
C242        C  0.53623857  0.92901140  0.29563414     0.00900
C243        C  0.50443880  0.88331384  0.30609949    -0.21900
C244        C  0.48417894  0.86480276  0.25709409    -0.22200
C245        C  0.50319409  0.90051684  0.21813825     0.00800
H246        H  0.49278961  0.86819728  0.34546368     0.14600
H247        H  0.45482968  0.83178057  0.25093879     0.14700
N248        N  0.26439511  0.97729675  0.97316894    -0.01700
C249        C  0.21096531  0.96432742  0.96178444     0.00900
C250        C  0.19633930  0.98267369  0.91025883    -0.21900
C251        C  0.24157384  0.00454662  0.88791727    -0.22200
C252        C  0.28275890  0.00089673  0.92703601     0.00800
H253        H  0.15551113  0.98758326  0.89391982     0.14600
H254        H  0.24253434  0.02762763  0.85016868     0.14700
N255        N  0.76728607  0.99835634  0.98803206    -0.01700
C256        C  0.81586230  0.02236042  0.97291079     0.00900
C257        C  0.81141013  0.07832454  0.96868228    -0.21900
C258        C  0.76299294  0.09065579  0.98867646    -0.22200
C259        C  0.73859038  0.04170987  0.00244678     0.00800
H260        H  0.84400553  0.10770287  0.96212905     0.14600
H261        H  0.74994360  0.13099702  0.99831875     0.14700
O262        O  0.71060107  0.85672248  0.74745825    -0.76700
C263        C  0.72284692  0.77902579  0.90505501     0.84400
O264        O  0.57301241  0.82403207  0.74939511    -0.77800
O265        O  0.56709133  0.84186208  0.94430928    -0.79300
O266        O  0.73081116  0.97984606  0.90032529    -0.79100
O267        O  0.74301985  0.93713426  0.77429273    -0.77700
Zn268      Zn  0.67910740  0.83439269  0.81610767     1.55700
O269        O  0.70226233  0.92658984  0.96882960    -0.79100
Cd270      Cd  0.68598480  0.95505227  0.82987446     1.59700
Cd271      Cd  0.57217033  0.88430839  0.80949034     1.59600
O272        O  0.63056277  0.00670529  0.78934153    -0.79100
O273        O  0.64378507  0.88977071  0.84864152    -1.89600
Cd274      Cd  0.64781718  0.86853708  0.92741358     1.59900
O275        O  0.55530901  0.95648253  0.76974725    -0.79000
O276        O  0.68565236  0.79360664  0.93527234    -0.77700
C277        C  0.60042690  0.78098865  0.75549995     0.84800
C278        C  0.74387624  0.89628976  0.74330888     0.84500
O279        O  0.73692036  0.80861242  0.86537005    -0.76600
C280        C  0.73373664  0.96498617  0.95057718     0.85300
O281        O  0.62956049  0.77351572  0.79825832    -0.76700
C282        C  0.58311815  0.00057241  0.76625152     0.85400
C283        C  0.52674978  0.83527759  0.91003413     0.85800
O284        O  0.51869977  0.86756290  0.86964068    -0.79200
N285        N  0.56074166  0.04546766  0.73589727    -0.01700
C286        C  0.58397038  0.06032183  0.68857813     0.00900
C287        C  0.60339572  0.11384515  0.69181681    -0.21900
C288        C  0.58674702  0.13418442  0.73926259    -0.22200
C289        C  0.55826758  0.09245612  0.76403628     0.00800
H290        H  0.62074062  0.13821273  0.65964331     0.14600
H291        H  0.58838267  0.17671809  0.75024359     0.14700
O292        O  0.40392857  0.22097923  0.75099356    -0.76700
C293        C  0.29974518  0.09729786  0.75379891     0.84400
O294        O  0.29216354  0.22068950  0.91515708    -0.77800
O295        O  0.36637624  0.02958898  0.89206059    -0.79300
O296        O  0.51622561  0.15145156  0.82289310    -0.79100
O297        O  0.45033453  0.26930140  0.81204404    -0.77700
Zn298      Zn  0.35284399  0.19436995  0.80470872     1.55700
O299        O  0.47381283  0.07139638  0.80369092    -0.79100
Cd300      Cd  0.46168330  0.19957859  0.86044030     1.59700
Cd301      Cd  0.35435292  0.16444786  0.92555497     1.59600
O302        O  0.48206258  0.22528181  0.93903358    -0.79100
O303        O  0.39233571  0.15744159  0.85857266    -1.89600
Cd304      Cd  0.39575736  0.08141719  0.83171219     1.59900
O305        O  0.40861949  0.19649509  0.98275419    -0.79000
O306        O  0.33841688  0.06593559  0.76743818    -0.77700
C307        C  0.28320719  0.25483940  0.87644068     0.84800
C308        C  0.42720845  0.26505088  0.76523541     0.84500
O309        O  0.29964151  0.14619942  0.76902848    -0.76600
C310        C  0.51454565  0.10454546  0.80077740     0.85300
O311        O  0.31011729  0.25470655  0.83357901    -0.76700
C312        C  0.45469923  0.22131829  0.98178190     0.85400
C313        C  0.32833463  0.04010572  0.92372614     0.85800
O314        O  0.32048473  0.08790810  0.94125311    -0.79200
O315        O  0.24215468  0.80635594  0.08677344    -0.76700
C316        C  0.37595010  0.72187679  0.17340547     0.84400
O317        O  0.31995559  0.93544439  0.17980167    -0.77800
O318        O  0.48709339  0.85430765  0.13885278    -0.79300
O319        O  0.40089816  0.79130595  0.97168611    -0.79100
O320        O  0.27793156  0.75835776  0.02388368    -0.72500
Zn321      Zn  0.31029489  0.80974895  0.13115829     1.55700
O322        O  0.46448822  0.76968290  0.03476052    -0.79100
Cd323      Cd  0.33711110  0.82101925  0.01637966     1.59700
Cd324      Cd  0.36600492  0.91913126  0.11158018     1.59600
O325        O  0.30008585  0.89206113  0.99008006    -0.79100
O326        O  0.36471337  0.84106813  0.08958198    -1.89600
Cd327      Cd  0.43291704  0.80336335  0.10177108     1.59900
O328        O  0.32662379  0.96052364  0.04606410    -0.79000
O329        O  0.41965160  0.74445243  0.15827233    -0.77700
C330        C  0.30098200  0.89922561  0.21170978     0.84800
C331        C  0.24038920  0.76514208  0.05666982     0.84500
O332        O  0.32958497  0.73589269  0.15518854    -0.76600
C333        C  0.44654424  0.77035128  0.98582760     0.85300
O334        O  0.29898327  0.84950531  0.19857131    -0.76700
C335        C  0.29871629  0.94182395  0.00495667     0.85400
C336        C  0.48055695  0.89909658  0.16234107     0.85800
O337        O  0.44446079  0.93352617  0.14692475    -0.79200
O338        O  0.74173144  0.16590110  0.16670193    -0.76700
C339        C  0.59639078  0.18692286  0.25492972     0.84400
O340        O  0.74089610  0.03303592  0.21336765    -0.77800
O341        O  0.53734537  0.02596643  0.20581685    -0.79300
O342        O  0.56562956  0.17675159  0.06447097    -0.79100
O343        O  0.70314424  0.18872773  0.08656336    -0.77700
Zn344      Zn  0.67720868  0.13311189  0.20049733     1.55700
O345        O  0.50949256  0.14036278  0.12485302    -0.79100
Cd346      Cd  0.63735251  0.13401192  0.08232938     1.59700
Cd347      Cd  0.66968510  0.02488565  0.16067093     1.59600
O348        O  0.65698628  0.07523440  0.02976737    -0.79100
O349        O  0.63336464  0.09582938  0.15186813    -1.89600
Cd350      Cd  0.56077758  0.10052327  0.17921923     1.59900
O351        O  0.69886591  0.01259711  0.08345475    -0.79000
O352        O  0.56138455  0.14932031  0.24569620    -0.77700
C353        C  0.73788620  0.06222179  0.25527949     0.84800
C354        C  0.74167981  0.19316345  0.12245233     0.84500
O355        O  0.64021891  0.19085355  0.23065755    -0.76600
C356        C  0.51978092  0.17441995  0.08680453     0.85300
O357        O  0.69420456  0.08548814  0.26271584    -0.76700
C358        C  0.69345100  0.03994524  0.03888931     0.85400
C359        C  0.56272883  0.98194349  0.21334104     0.85800
O360        O  0.61080705  0.97462720  0.19718552    -0.79200
N361        N  0.44504372  0.48158023  0.21320060    -0.01700
C362        C  0.40809238  0.47801721  0.17063315     0.00900
C363        C  0.38418707  0.42619258  0.16918572    -0.21900
C364        C  0.41174963  0.39514081  0.20666740    -0.22200
C365        C  0.45014246  0.42956657  0.23037919     0.00800
H366        H  0.35614062  0.41011450  0.13819376     0.14600
H367        H  0.40647480  0.35177611  0.21380593     0.14700
N368        N  0.74131140  0.51678845  0.47416478    -0.01700
C369        C  0.79274402  0.52821161  0.45825265     0.00900
C370        C  0.79644075  0.51919402  0.40353186    -0.21900
C371        C  0.74634259  0.50240353  0.38445622    -0.22200
C372        C  0.71350663  0.50088352  0.42831518     0.00800
H373        H  0.83303758  0.51874721  0.38119324     0.14600
H374        H  0.73634956  0.48741447  0.34414916     0.14700
O375        O  0.65741386  0.34594192  0.24617937    -0.76700
C376        C  0.72366979  0.29541160  0.40263027     0.84400
O377        O  0.54453488  0.25425351  0.29065630    -0.77800
O378        O  0.55560683  0.30793560  0.47612611    -0.79300
O379        O  0.63000815  0.48055505  0.38469894    -0.79100
O380        O  0.66624923  0.43323701  0.26438806    -0.77700
Zn381      Zn  0.64957537  0.32085282  0.32215640     1.55700
O382        O  0.65881764  0.42439516  0.45282436    -0.79100
Cd383      Cd  0.60523665  0.42977412  0.32243761     1.59700
Cd384      Cd  0.53202646  0.31851046  0.33831807     1.59600
O385        O  0.53206549  0.44334124  0.28116908    -0.79100
O386        O  0.59868268  0.35775731  0.35759947    -1.89600
Cd387      Cd  0.62158021  0.34770511  0.43503025     1.59900
O388        O  0.48361409  0.36576642  0.29253983    -0.79000
O389        O  0.68654519  0.29303718  0.43716982    -0.77700
C390        C  0.58809937  0.22848167  0.29291653     0.84800
C391        C  0.67846644  0.39243638  0.23645279     0.84500
O392        O  0.71948392  0.32702755  0.36172006    -0.76600
C393        C  0.66219365  0.46908681  0.42501494     0.85300
O394        O  0.62896543  0.24414271  0.32150018    -0.76700
C395        C  0.49044834  0.41255354  0.27118929     0.85400
C396        C  0.51221994  0.28493429  0.45540099     0.85800
O397        O  0.49909919  0.28845230  0.40521048    -0.79200
N398        N  0.47633079  0.25183149  0.48700759    -0.01700
C399        C  0.46720152  0.19845357  0.47218111     0.00900
C400        C  0.41273775  0.18482195  0.47023718    -0.21900
C401        C  0.38631953  0.22983573  0.48422990    -0.22200
C402        C  0.42526456  0.27012993  0.49444601     0.00800
H403        H  0.39427340  0.14531302  0.46153444     0.14600
H404        H  0.34319188  0.23190369  0.48971586     0.14700
N405        N  0.54143442  0.76025408  0.46817468    -0.01700
C406        C  0.56404792  0.81065229  0.45718689     0.00900
C407        C  0.57581807  0.81555943  0.40303328    -0.21900
C408        C  0.55674660  0.76947082  0.37826335    -0.22200
C409        C  0.53476497  0.73717702  0.41826385     0.00800
H410        H  0.59261284  0.85104798  0.38273398     0.14600
H411        H  0.55473135  0.76250886  0.33499220     0.14700
O412        O  0.31088369  0.72250351  0.34094778    -0.76700
C413        C  0.37860829  0.68508223  0.21922710     0.84400
O414        O  0.27884386  0.53945885  0.28393537    -0.77800
O415        O  0.45832769  0.56403240  0.25953186    -0.79300
O416        O  0.45740528  0.68216022  0.43572888    -0.79100
O417        O  0.32609927  0.70690561  0.42913000    -0.77700
Zn418      Zn  0.32123105  0.65163338  0.31169232     1.55700
O419        O  0.49855879  0.67111576  0.35722800    -0.79100
Cd420      Cd  0.38197156  0.64554442  0.42100891     1.59700
Cd421      Cd  0.34685046  0.54060339  0.33783803     1.59600
O422        O  0.36121082  0.58001058  0.46804207    -0.79100
O423        O  0.37691358  0.61542138  0.34729499    -1.89600
Cd424      Cd  0.44199672  0.62976091  0.30732098     1.59900
O425        O  0.31954436  0.51824683  0.41411322    -0.79000
O426        O  0.42249617  0.68378510  0.24770887    -0.77700
C427        C  0.24433775  0.57632398  0.28727076     0.84800
C428        C  0.30451941  0.73416617  0.38996733     0.84500
O429        O  0.33548375  0.66108572  0.23392761    -0.76600
C430        C  0.49620070  0.69230904  0.40424916     0.85300
O431        O  0.25221616  0.61273140  0.32225388    -0.76700
C432        C  0.31995031  0.55034933  0.45459775     0.85400
C433        C  0.43438285  0.51752878  0.25668970     0.85800
O434        O  0.39938508  0.50118970  0.29083505    -0.79200
N435        N  0.23949147  0.52639745  0.50826613    -0.01700
C436        C  0.19025984  0.54827620  0.51424653     0.00900
C437        C  0.18818186  0.59775744  0.48663624    -0.21900
C438        C  0.23743647  0.60631275  0.46367617    -0.22200
C439        C  0.26809020  0.56191834  0.47819711     0.00800
H440        H  0.15282697  0.62244252  0.47953654     0.14600
H441        H  0.24785065  0.63904563  0.43606071     0.14700
N442        N  0.48841073  0.50574407  0.72578863    -0.01700
C443        C  0.50148568  0.47748148  0.77271568     0.00900
C444        C  0.55583621  0.46508922  0.77552646    -0.21900
C445        C  0.57818845  0.48825310  0.73123877    -0.22200
C446        C  0.53703925  0.51417241  0.70277396     0.00800
H447        H  0.57805416  0.44539687  0.80880447     0.14600
H448        H  0.62035455  0.48780463  0.72198710     0.14700
O449        O  0.37257119  0.33720272  0.74265115    -0.76700
C450        C  0.23603503  0.42635235  0.72532791     0.84400
O451        O  0.24634715  0.31448653  0.57899302    -0.77800
O452        O  0.28930556  0.50599837  0.58740782    -0.79300
O453        O  0.45951038  0.44580864  0.65900233    -0.79100
O454        O  0.43659123  0.31846743  0.68634604    -0.77700
Zn455      Zn  0.31622516  0.34931205  0.68443983     1.55700
O456        O  0.39700504  0.49849676  0.69443272    -0.79100
Cd457      Cd  0.41928568  0.37864978  0.62941447     1.59700
Cd458      Cd  0.30486491  0.37286439  0.56339529     1.59600
O459        O  0.44219101  0.34190696  0.55820435    -0.79100
O460        O  0.34173775  0.39509407  0.63099774    -1.89600
Cd461      Cd  0.32469728  0.46875055  0.65585467     1.59900
O462        O  0.35961620  0.33174547  0.51866168    -0.79000
O463        O  0.26209127  0.46905028  0.71083637    -0.77700
C464        C  0.25329611  0.27657821  0.61405554     0.84800
C465        C  0.41459157  0.31187540  0.73160187     0.84500
O466        O  0.25244135  0.37933637  0.71529528    -0.76600
C467        C  0.44603974  0.48361871  0.69064134     0.85300
O468        O  0.28970537  0.28006574  0.65195833    -0.76700
C469        C  0.40967726  0.31966007  0.52313876     0.85400
C470        C  0.26569382  0.48821690  0.54360216     0.85800
O471        O  0.26784150  0.43900269  0.52840584    -0.79200
O472        O  0.65588811  0.73013631  0.70402744    -0.76700
C473        C  0.71674665  0.57528767  0.72737650     0.84400
O474        O  0.74323976  0.71771967  0.54172206    -0.77800
O475        O  0.70197590  0.52921318  0.55759452    -0.79300
O476        O  0.53275456  0.59778524  0.65357832    -0.79100
O477        O  0.56810353  0.72426326  0.68209699    -0.77700
Zn478      Zn  0.69305860  0.67707840  0.66138265     1.55700
O479        O  0.58199274  0.53091861  0.62213057    -0.79100
Cd480      Cd  0.57168991  0.66685876  0.62012663     1.59700
Cd481      Cd  0.67555877  0.66623247  0.53766824     1.59600
O482        O  0.54148566  0.70878701  0.55017994    -0.79100
O483        O  0.64867793  0.64289243  0.60912162    -1.89600
Cd484      Cd  0.65957546  0.56190342  0.61980377     1.59900
O485        O  0.61526514  0.71131118  0.50013085    -0.79000
O486        O  0.69973040  0.53987701  0.69345096    -0.77700
C487        C  0.77246768  0.72585977  0.58435952     0.84800
C488        C  0.60759163  0.74355021  0.71107138     0.84500
O489        O  0.71516127  0.62549151  0.71616514    -0.76600
C490        C  0.54787156  0.54828774  0.65470433     0.85300
O491        O  0.75781705  0.70973005  0.63069214    -0.76700
C492        C  0.56702543  0.72574772  0.50874754     0.85400
C493        C  0.71480871  0.54968996  0.51201526     0.85800
O494        O  0.70313775  0.59854557  0.49772493    -0.79200
N495        N  0.30338302  0.02844917  0.48953662    -0.01700
C496        C  0.35491065  0.02940920  0.51275783     0.00900
C497        C  0.35982308  0.06958405  0.55137288    -0.21900
C498        C  0.31048912  0.09273434  0.55380999    -0.22200
C499        C  0.27635257  0.06566565  0.51717468     0.00800
H500        H  0.39590975  0.08103653  0.57531304     0.14600
H501        H  0.29945260  0.12279198  0.58277269     0.14700
N502        N  0.80376481  0.02234953  0.51928723    -0.01700
C503        C  0.75503787  0.03900515  0.53613906     0.00900
C504        C  0.75463450  0.04173647  0.59185448    -0.21900
C505        C  0.80378878  0.02415450  0.61088748    -0.22200
C506        C  0.83240372  0.01068209  0.56613401     0.00800
H507        H  0.72038088  0.05020604  0.61608608     0.14600
H508        H  0.81475958  0.01558278  0.65304093     0.14700
N509        N  0.99222198  0.25601017  0.53778468    -0.01700
C510        C  0.01333614  0.30701543  0.54713824     0.00900
C511        C  0.05274339  0.30442967  0.58842940    -0.21900
C512        C  0.05706095  0.25049423  0.60354153    -0.22200
C513        C  0.01975018  0.22146735  0.57169027     0.00800
H514        H  0.07681415  0.33814505  0.60495540     0.14600
H515        H  0.08753255  0.23389601  0.63117612     0.14700
N516        N  0.04580372  0.02341015  0.27689855    -0.01700
C517        C  0.06058250  0.03678511  0.22494397     0.00900
C518        C  0.07747857  0.09050649  0.22095130    -0.21900
C519        C  0.06658131  0.11373993  0.26852858    -0.22200
C520        C  0.04243756  0.07341032  0.29985422     0.00800
H521        H  0.08829334  0.11238822  0.18437498     0.14600
H522        H  0.06650923  0.15728043  0.27485444     0.14700
N523        N  0.05136382  0.76140033  0.53708391    -0.01700
C524        C  0.06509483  0.71095221  0.55722217     0.00900
C525        C  0.11899546  0.70984733  0.57366365    -0.21900
C526        C  0.14093439  0.75910813  0.55968040    -0.22200
C527        C  0.10003814  0.78886970  0.53391744     0.00800
H528        H  0.14129018  0.67498607  0.58880080     0.14600
H529        H  0.18395572  0.76866523  0.56085177     0.14700
O530        O  0.22612721  0.77929259  0.36627706    -0.76700
C531        C  0.11743769  0.80609609  0.27528978     0.84400
O532        O  0.25171540  0.95437960  0.27251038    -0.77800
O533        O  0.06245365  0.94442332  0.33240121    -0.79300
O534        O  0.16616804  0.84328882  0.49248530    -0.79100
O535        O  0.27865039  0.81607267  0.43090941    -0.77700
Zn536      Zn  0.21076162  0.84805251  0.32878318     1.55700
O537        O  0.08384913  0.84202217  0.45010737    -0.79100
Cd538      Cd  0.22320176  0.87655370  0.44266635     1.59700
Cd539      Cd  0.20668738  0.96751405  0.34324127     1.59600
O540        O  0.26742664  0.94190712  0.47275751    -0.79100
O541        O  0.18285342  0.89714803  0.37509400    -1.89600
Cd542      Cd  0.10311323  0.87734934  0.37199577     1.59900
O543        O  0.25491016  0.00611249  0.40776815    -0.79000
O544        O  0.09009355  0.81300284  0.31723792    -0.77700
C545        C  0.27833164  0.91156770  0.26436034     0.84800
C546        C  0.26757618  0.77775431  0.39813419     0.84500
O547        O  0.16011989  0.83407175  0.26753982    -0.76600
C548        C  0.11600699  0.82891123  0.49051925     0.85300
O549        O  0.27918208  0.87336853  0.29926420    -0.76700
C550        C  0.27590903  0.98982327  0.45400113     0.85400
C551        C  0.08164549  0.98735887  0.30847563     0.85800
O552        O  0.13259229  0.00055486  0.31231574    -0.79200
O553        O  0.78678186  0.13408862  0.29370177    -0.76700
C554        C  0.76754585  0.25639202  0.40318612     0.84400
O555        O  0.94738058  0.25942351  0.31961548    -0.77800
O556        O  0.91058948  0.21909436  0.50248416    -0.79300
O557        O  0.85441113  0.03775614  0.44118053    -0.79100
O558        O  0.82064372  0.05246517  0.31036377    -0.77700
Zn559      Zn  0.83391788  0.19004178  0.32838075     1.55700
O560        O  0.82530194  0.10869188  0.48736999    -0.79100
Cd561      Cd  0.87992081  0.07785494  0.37026215     1.59700
Cd562      Cd  0.95037940  0.19688526  0.37656621     1.59600
O563        O  0.95703002  0.05898381  0.34219782    -0.79100
O564        O  0.87889057  0.15975429  0.38321795    -1.89600
Cd565      Cd  0.85043008  0.18089409  0.45367310     1.59900
O566        O  0.00085923  0.13990191  0.34903056    -0.79000
O567        O  0.78481844  0.23298326  0.44665685    -0.77700
C568        C  0.91467671  0.26114649  0.27865109     0.84800
C569        C  0.78508264  0.08289480  0.28756845     0.84500
O570        O  0.78575249  0.24508363  0.35740882    -0.76600
C571        C  0.82923112  0.05746050  0.48046847     0.85300
O572        O  0.87539702  0.22744166  0.27232338    -0.76700
C573        C  0.99847661  0.09019454  0.33450815     0.85400
C574        C  0.95835350  0.23696445  0.49335356     0.85800
O575        O  0.97941690  0.23163963  0.44764436    -0.79200
N576        N  0.04612726  0.94465851  0.78098540    -0.01700
C577        C  0.06213950  0.92368869  0.82986557     0.00900
C578        C  0.11621192  0.91036226  0.82967967    -0.21900
C579        C  0.13568374  0.93049755  0.78184102    -0.22200
C580        C  0.09190554  0.95289647  0.75393630     0.00800
H581        H  0.14067490  0.89543420  0.86387434     0.14600
H582        H  0.17773760  0.93347109  0.77134895     0.14700
O583        O  0.85615705  0.74560863  0.62332807    -0.76700
C584        C  0.90779068  0.73238442  0.75851369     0.84400
O585        O  0.82986095  0.92208866  0.71442449    -0.77800
O586        O  0.01450576  0.86818428  0.73368681    -0.79300
O587        O  0.97177337  0.81291602  0.54022943    -0.79100
O588        O  0.83331824  0.79563757  0.55251764    -0.77700
Zn589      Zn  0.85798784  0.80309617  0.67615265     1.55700
O590        O  0.01415236  0.78491464  0.61827559    -0.79100
Cd591      Cd  0.90128079  0.84697208  0.57054629     1.59700
Cd592      Cd  0.90327806  0.92054433  0.67944573     1.59600
O593        O  0.87223582  0.92532842  0.54677988    -0.79100
O594        O  0.91306508  0.84742448  0.65262478    -1.89600
Cd595      Cd  0.97436635  0.80873850  0.68645977     1.59900
O596        O  0.90568584  0.97455753  0.61583004    -0.79000
O597        O  0.95400101  0.73968477  0.73773451    -0.77700
C598        C  0.78948630  0.88917667  0.70926305     0.84800
C599        C  0.82407306  0.75519891  0.58382280     0.84500
O600        O  0.86921050  0.76336698  0.74496594    -0.76600
C601        C  0.01021340  0.78785514  0.56610196     0.85300
O602        O  0.79109672  0.84540999  0.68230591    -0.76700
C603        C  0.87503936  0.96971911  0.57352382     0.85400
C604        C  0.00484493  0.91638896  0.74987331     0.85800
O605        O  0.96249640  0.94168054  0.73518568    -0.79200
O606        O  0.20700533  0.09527295  0.73769323    -0.76700
C607        C  0.21779123  0.22860938  0.61358936     0.84400
O608        O  0.04359419  0.16778708  0.71912758    -0.77800
O609        O  0.06128927  0.14979747  0.52924960    -0.79300
O610        O  0.19662887  0.02855446  0.55343805    -0.79100
O611        O  0.25381707  0.05996358  0.67463591    -0.77700
Zn612      Zn  0.17328318  0.14539652  0.68442521     1.55700
O613        O  0.19634806  0.11268181  0.51822220    -0.79100
Cd614      Cd  0.17887970  0.04505417  0.63272680     1.59700
Cd615      Cd  0.05858259  0.10600003  0.66236337     1.59600
O616        O  0.13889869  0.98984198  0.68069013    -0.79100
O617        O  0.13276515  0.11011217  0.63181899    -1.89600
Cd618      Cd  0.13937757  0.14980206  0.56214702     1.59900
O619        O  0.06096531  0.02938984  0.70240948    -0.79000
O620        O  0.17759354  0.22425205  0.57945276    -0.77700
C621        C  0.08166973  0.19950519  0.73643949     0.84800
C622        C  0.25176546  0.07963007  0.72178927     0.84500
O623        O  0.22730715  0.19280187  0.65025157    -0.76600
C624        C  0.21795530  0.06646088  0.52471535     0.85300
O625        O  0.12985344  0.19223399  0.72376455    -0.76700
C626        C  0.09635287  0.99182139  0.70827169     0.85400
C627        C  0.02534143  0.16267370  0.56183351     0.85800
O628        O  0.00771739  0.12696317  0.59566677    -0.79200
loop_ 
_geom_bond_atom_site_label_1 
_geom_bond_atom_site_label_2 
_geom_bond_distance 
_geom_bond_site_symmetry_2 
_ccdc_geom_bond_type 
O1           C17   1.281       .  A
O1           Zn7   2.040       .  S
C2           O18   1.275       .  A
C2           O15   1.283       .  A
C2          C235   1.489       .  S
O3           C16   1.277       .  A
O3          Cd10   2.058       .  S
O4           C22   1.278       .  A
O4          Cd13   2.101       .  S
O5           C19   1.269       .  A
O5           Cd9   2.052       .  S
O6           C17   1.271       .  A
O6           Cd9   2.067   1_556  S
Zn7          O18   2.005       .  S
Zn7          O20   2.087       .  S
Zn7          O12   1.929       .  S
O8           C19   1.280       .  A
O8          Cd13   2.137       .  S
Cd9          O11   2.084       .  S
Cd9          O12   1.991   1_554  S
Cd10         O14   2.117       .  S
Cd10         O23   2.062       .  S
Cd10         O12   1.993       .  S
O11          C21   1.278       .  A
O12         Cd13   2.051   1_556  S
Cd13         O15   2.146   1_554  S
O14          C21   1.278   1_556  A
C16          O20   1.280       .  A
C16         C443   1.490       .  S
C17         C101   1.481       .  S
C19         C362   1.487       .  S
C21         C228   1.491       .  S
C22          O23   1.274   1_554  A
C22          C94   1.467       .  S
O24          C40   1.279       .  A
O24         Zn30   2.031       .  S
C25          O41   1.278       .  A
C25          O38   1.281       .  A
C25         C399   1.494       .  S
O26          C39   1.291   1_565  A
O26         Cd33   2.198       .  S
O27          C45   1.272       .  A
O27         Cd36   2.093       .  S
O28          C42   1.280       .  A
O28         Cd32   2.100       .  S
O29          C40   1.275   1_565  A
O29         Cd32   2.084       .  S
Zn30         O41   2.072       .  S
Zn30         O43   1.951       .  S
Zn30         O35   1.933       .  S
O31          C42   1.278       .  A
O31         Cd36   2.080   1_565  S
Cd32         O34   2.070       .  S
Cd32         O35   1.996   1_565  S
Cd33         O37   2.183       .  S
Cd33         O46   2.119       .  S
Cd33         O35   2.034   1_565  S
O34          C44   1.272       .  A
O35         Cd36   2.003       .  S
Cd36         O38   2.091       .  S
O37          C44   1.288       .  A
C39          O43   1.267       .  A
C39         C286   1.507       .  S
C40         C503   1.479       .  S
C42         C242   1.475       .  S
C44         C406   1.502       .  S
C45          O46   1.286   1_545  A
C45         C496   1.483       .  S
O47          C63   1.284   1_455  A
O47         Zn53   2.106       .  S
C48          O64   1.281       .  A
C48          O61   1.280       .  A
C48         C436   1.478       .  S
O49          C62   1.277   1_655  A
O49         Cd56   2.115       .  S
O50          C68   1.287   1_455  A
O50         Cd59   2.162       .  S
O51          C65   1.278       .  A
O51         Cd55   2.099       .  S
O52          C63   1.279       .  A
O52         Cd55   2.075       .  S
Zn53         O64   2.059       .  S
Zn53         O66   2.038       .  S
Zn53         O58   1.963   1_455  S
O54          C65   1.285   1_455  A
O54         Cd59   2.129       .  S
Cd55         O57   2.109       .  S
Cd55         O58   1.992       .  S
Cd56         O60   2.103       .  S
Cd56         O69   2.076       .  S
Cd56         O58   2.006       .  S
O57          C67   1.283       .  A
O58         Cd59   2.003   1_655  S
Cd59         O61   2.080       .  S
O60          C67   1.282       .  A
C62          O66   1.278       .  A
C62         C524   1.494       .  S
C63         C122   1.484       .  S
C65         C510   1.488   1_655  S
C67         C369   1.483       .  S
C68          O69   1.277       .  A
C68         C108   1.501       .  S
O70          C86   1.286       .  A
O70         Zn76   2.103       .  S
C71          O87   1.286   1_655  A
C71          O84   1.274       .  A
C71         C152   1.491       .  S
O72          C85   1.289       .  A
O72         Cd79   2.136   1_465  S
O73          C91   1.294   1_564  A
O73         Cd82   2.184       .  S
O74          C88   1.276       .  A
O74         Cd78   2.070       .  S
O75          C86   1.272   1_545  A
O75         Cd78   2.057       .  S
Zn76         O87   2.107       .  S
Zn76         O89   2.005   1_554  S
Zn76         O81   1.962       .  S
O77          C88   1.295   1_655  A
O77         Cd82   2.196   1_545  S
Cd78         O80   2.073       .  S
Cd78         O81   1.962   1_545  S
Cd79         O83   2.207   1_655  S
Cd79         O92   2.102       .  S
Cd79         O81   2.017   1_646  S
O80          C90   1.280       .  A
O81         Cd82   2.002   1_455  S
Cd82         O84   2.048       .  S
O83          C90   1.289   1_556  A
C85          O89   1.273       .  A
C85         C577   1.482       .  S
C86         C249   1.486   1_554  S
C88         C517   1.500       .  S
C90         C115   1.526       .  S
C91          O92   1.281       .  A
C91         C256   1.510       .  S
N93          C97   1.348       .  A
N93          C94   1.362       .  A
N93         C178   1.435   1_554  S
C94          C95   1.387       .  A
C95          C96   1.370       .  A
C95          H98   1.083       .  S
C96          C97   1.373       .  A
C96          H99   1.082       .  S
C97         C202   1.459       .  S
N100        C104   1.362       .  A
N100        C101   1.372       .  A
N100        C149   1.437       .  S
C101        C102   1.381       .  A
C102        C103   1.356       .  A
C102        H105   1.083       .  S
C103        C104   1.379       .  A
C103        H106   1.080       .  S
C104        C222   1.476   1_556  S
N107        C111   1.360       .  A
N107        C108   1.378       .  A
N107        C224   1.446   1_655  S
C108        C109   1.383       .  A
C109        C110   1.355       .  A
C109        H112   1.082       .  S
C110        C111   1.380       .  A
C110        H113   1.083       .  S
C111        C199   1.471       .  S
N114        C118   1.366       .  A
N114        C115   1.388       .  A
N114        C148   1.453   1_554  S
C115        C116   1.390       .  A
C116        C117   1.353       .  A
C116        H119   1.082       .  S
C117        C118   1.372       .  A
C117        H120   1.083       .  S
C118        C201   1.475   1_455  S
N121        C125   1.362       .  A
N121        C122   1.374       .  A
N121        C146   1.446       .  S
C122        C123   1.381       .  A
C123        C124   1.362       .  A
C123        H126   1.083       .  S
C124        C125   1.369       .  A
C124        H127   1.074       .  S
C125        C179   1.466       .  S
O128        C144   1.260       .  A
O128       Zn134   1.880       .  S
C129        O145   1.259       .  A
C129        O142   1.267       .  A
C129        C450   1.458       .  S
O130        C143   1.274       .  A
O130       Cd137   2.090       .  S
O131        C149   1.277       .  A
O131       Cd140   2.034       .  S
O132        C146   1.296       .  A
O132       Cd136   2.172   1_655  S
O133        C144   1.276       .  A
O133       Cd136   2.138       .  S
Zn134       O145   1.957       .  S
Zn134       O147   2.000       .  S
Zn134       O139   1.850       .  S
O135        C146   1.278   1_455  A
O135       Cd140   2.075       .  S
Cd136       O138   2.151       .  S
Cd136       O139   2.027       .  S
Cd137       O141   2.096       .  S
Cd137       O150   2.132       .  S
Cd137       O139   1.980       .  S
O138        C148   1.289       .  A
O139       Cd140   1.989       .  S
Cd140       O142   2.106       .  S
O141        C148   1.286       .  A
C143        O147   1.271       .  A
C143        C307   1.472       .  S
C144        C621   1.466       .  S
C149        O150   1.285       .  A
N151        C155   1.355       .  A
N151        C152   1.359       .  A
N151        C225   1.424       .  S
C152        C153   1.385       .  A
C153        C154   1.368       .  A
C153        H156   1.083       .  S
C154        C155   1.381       .  A
C154        H157   1.083       .  S
C155        C176   1.477       .  S
O158        C174   1.261       .  A
O158       Zn164   1.932       .  S
C159        O175   1.273       .  A
C159        O172   1.281       .  A
C159        C584   1.484       .  S
O160        C173   1.274       .  A
O160       Cd167   2.120       .  S
O161        C179   1.281       .  A
O161       Cd170   2.119       .  S
O162        C176   1.279       .  A
O162       Cd166   2.054   1_554  S
O163        C174   1.270       .  A
O163       Cd166   2.084       .  S
Zn164       O175   1.986       .  S
Zn164       O177   1.955       .  S
Zn164       O169   1.831       .  S
O165        C176   1.284   1_556  A
O165       Cd170   2.110       .  S
Cd166       O168   2.095       .  S
Cd166       O169   2.007       .  S
Cd167       O171   2.078       .  S
Cd167       O180   2.091       .  S
Cd167       O169   2.022       .  S
O168        C178   1.278       .  A
O169       Cd170   2.014       .  S
Cd170       O172   2.152       .  S
O171        C178   1.280       .  A
C173        O177   1.264       .  A
C173        C473   1.455       .  S
C174        C263   1.454       .  S
C179        O180   1.275       .  A
O181        C197   1.259       .  A
O181       Zn187   1.958       .  S
C182        O198   1.265       .  A
C182        O195   1.277       .  A
C182        C391   1.471       .  S
O183        C196   1.274       .  A
O183       Cd190   2.074       .  S
O184        C202   1.270       .  A
O184       Cd193   2.036       .  S
O185        C199   1.280       .  A
O185       Cd189   2.093       .  S
O186        C197   1.268       .  A
O186       Cd189   2.080       .  S
Zn187       O198   1.949       .  S
Zn187       O200   1.991       .  S
Zn187       O192   1.845       .  S
O188        C199   1.274       .  A
O188       Cd193   2.034       .  S
Cd189       O191   2.071       .  S
Cd189       O192   1.989       .  S
Cd190       O194   2.094       .  S
Cd190       O203   2.066       .  S
Cd190       O192   1.991       .  S
O191        C201   1.281       .  A
O192       Cd193   1.973       .  S
Cd193       O195   2.132       .  S
O194        C201   1.279       .  A
C196        O200   1.272       .  A
C196        C354   1.460       .  S
C197        C568   1.439       .  S
C202        O203   1.274       .  A
O204        C220   1.266       .  A
O204       Zn210   1.946       .  S
C205        O221   1.267       .  A
C205        O218   1.272       .  A
C205        C331   1.455       .  S
O206        C219   1.270       .  A
O206       Cd213   2.077       .  S
O207        C225   1.268   1_455  A
O207       Cd216   2.044       .  S
O208        C222   1.285       .  A
O208       Cd212   2.143       .  S
O209        C220   1.274       .  A
O209       Cd212   2.101       .  S
Zn210       O221   1.971       .  S
Zn210       O223   1.973       .  S
Zn210       O215   1.858       .  S
O211        C222   1.270       .  A
O211       Cd216   2.044       .  S
Cd212       O214   2.139       .  S
Cd212       O215   2.028       .  S
Cd213       O217   2.056       .  S
Cd213       O226   2.078   1_455  S
Cd213       O215   1.964       .  S
O214        C224   1.289       .  A
O215       Cd216   1.992       .  S
Cd216       O218   2.094       .  S
O217        C224   1.279       .  A
C219        O223   1.269       .  A
C219        C531   1.460       .  S
C220        C427   1.457       .  S
C225        O226   1.280       .  A
N227        C231   1.361       .  A
N227        C228   1.366       .  A
N227        C312   1.430   1_554  S
C228        C229   1.379       .  A
C229        C230   1.365       .  A
C229        H232   1.078       .  S
C230        C231   1.381       .  A
C230        H233   1.083       .  S
C231        C356   1.479       .  S
N234        C238   1.359       .  A
N234        C235   1.368       .  A
N234        C333   1.432       .  S
C235        C236   1.381       .  A
C236        C237   1.362       .  A
C236        H239   1.083       .  S
C237        C238   1.379       .  A
C237        H240   1.064       .  S
C238        C283   1.480       .  S
N241        C245   1.346       .  A
N241        C242   1.358       .  A
N241        C359   1.418       .  S
C242        C243   1.381       .  A
C243        C244   1.369       .  A
C243        H246   1.082       .  S
C244        C245   1.380       .  A
C244        H247   1.083       .  S
C245        C336   1.465       .  S
N248        C252   1.359   1_565  A
N248        C249   1.370       .  A
N248        C335   1.433   1_556  S
C249        C250   1.379       .  A
C250        C251   1.362   1_565  A
C250        H253   1.080       .  S
C251        C252   1.377       .  A
C251        H254   1.083       .  S
C252        C313   1.468       .  S
N255        C259   1.354   1_566  A
N255        C256   1.387   1_565  A
N255        C280   1.463       .  S
C256        C257   1.383       .  A
C257        C258   1.356       .  A
C257        H260   1.084       .  S
C258        C259   1.376   1_556  A
C258        H261   1.083       .  S
C259        C358   1.461       .  S
O262        C278   1.263       .  A
O262       Zn268   1.958       .  S
C263        O279   1.265       .  A
C263        O276   1.269       .  A
O264        C277   1.273       .  A
O264       Cd271   2.113       .  S
O265        C283   1.289       .  A
O265       Cd274   2.141       .  S
O266        C280   1.286       .  A
O266       Cd270   2.112       .  S
O267        C278   1.272       .  A
O267       Cd270   2.067       .  S
Zn268       O279   1.949       .  S
Zn268       O281   1.953       .  S
Zn268       O273   1.846       .  S
O269        C280   1.295       .  A
O269       Cd274   2.174       .  S
Cd270       O272   2.102   1_565  S
Cd270       O273   1.951       .  S
Cd271       O275   2.055       .  S
Cd271       O284   2.058       .  S
Cd271       O273   1.984       .  S
O272        C282   1.289       .  A
O273       Cd274   2.003       .  S
Cd274       O276   2.088       .  S
O275        C282   1.272   1_565  A
C277        O281   1.266       .  A
C277        C488   1.461       .  S
C278        C598   1.449       .  S
C282        N285   1.433       .  S
C283        O284   1.276       .  A
N285        C289   1.360       .  A
N285        C286   1.363       .  A
C286        C287   1.391       .  A
C287        C288   1.363       .  A
C287        H290   1.083       .  S
C288        C289   1.378       .  A
C288        H291   1.083       .  S
C289        C310   1.478       .  S
O292        C308   1.261       .  A
O292       Zn298   1.962       .  S
C293        O309   1.264       .  A
C293        O306   1.274       .  A
C293        C622   1.458       .  S
O294        C307   1.277       .  A
O294       Cd301   2.098       .  S
O295        C313   1.281       .  A
O295       Cd304   2.085       .  S
O296        C310   1.281       .  A
O296       Cd300   2.072       .  S
O297        C308   1.272       .  A
O297       Cd300   2.090       .  S
Zn298       O309   1.940       .  S
Zn298       O311   1.998       .  S
Zn298       O303   1.855       .  S
O299        C310   1.283       .  A
O299       Cd304   2.098       .  S
Cd300       O302   2.086       .  S
Cd300       O303   1.980       .  S
Cd301       O305   2.058       .  S
Cd301       O314   2.076       .  S
Cd301       O303   1.946       .  S
O302        C312   1.278       .  A
O303       Cd304   1.996       .  S
Cd304       O306   2.115       .  S
O305        C312   1.280       .  A
C307        O311   1.273       .  A
C308        C465   1.440       .  S
C313        O314   1.280       .  A
O315        C331   1.264       .  A
O315       Zn321   1.971       .  S
C316        O332   1.267       .  A
C316        O329   1.269       .  A
C316        C413   1.436       .  S
O317        C330   1.272       .  A
O317       Cd324   2.120       .  S
O318        C336   1.268       .  A
O318       Cd327   2.012       .  S
O319        C333   1.285       .  A
O319       Cd323   2.113   1_556  S
O320        C331   1.272       .  A
O320       Cd323   2.108       .  S
Zn321       O332   1.963       .  S
Zn321       O334   1.975       .  S
Zn321       O326   1.869       .  S
O322        C333   1.269   1_554  A
O322       Cd327   2.052       .  S
Cd323       O325   2.073   1_554  S
Cd323       O326   1.969       .  S
Cd324       O328   2.112       .  S
Cd324       O337   2.117       .  S
Cd324       O326   2.000       .  S
O325        C335   1.283   1_556  A
O326       Cd327   1.954       .  S
Cd327       O329   2.023       .  S
O328        C335   1.287       .  A
C330        O334   1.268       .  A
C330        C545   1.474       .  S
C336        O337   1.287       .  A
O338        C354   1.271       .  A
O338       Zn344   1.978       .  S
C339        O355   1.261       .  A
C339        O352   1.267       .  A
C339        C390   1.421       .  S
O340        C353   1.273       .  A
O340       Cd347   2.152       .  S
O341        C359   1.271   1_545  A
O341       Cd350   2.015       .  S
O342        C356   1.280       .  A
O342       Cd346   2.110       .  S
O343        C354   1.277       .  A
O343       Cd346   2.084       .  S
Zn344       O355   1.886       .  S
Zn344       O357   1.953       .  S
Zn344       O349   1.825       .  S
O345        C356   1.277       .  A
O345       Cd350   2.060       .  S
Cd346       O348   2.037       .  S
Cd346       O349   1.947       .  S
Cd347       O351   2.094       .  S
Cd347       O360   2.107   1_545  S
Cd347       O349   1.985       .  S
O348        C358   1.277       .  A
O349       Cd350   1.950       .  S
Cd350       O352   2.046       .  S
O351        C358   1.283       .  A
C353        O357   1.256       .  A
C353        C569   1.470       .  S
C359        O360   1.287       .  A
N361        C365   1.347       .  A
N361        C362   1.365       .  A
N361        C433   1.437       .  S
C362        C363   1.390       .  A
C363        C364   1.361       .  A
C363        H366   1.083       .  S
C364        C365   1.374       .  A
C364        H367   1.082       .  S
C365        C395   1.451       .  S
N368        C372   1.357       .  A
N368        C369   1.368       .  A
N368        C493   1.434       .  S
C369        C370   1.379       .  A
C370        C371   1.363       .  A
C370        H373   1.079       .  S
C371        C372   1.379       .  A
C371        H374   1.083       .  S
C372        C393   1.473       .  S
O375        C391   1.267       .  A
O375       Zn381   1.979       .  S
C376        O392   1.266       .  A
C376        O389   1.278       .  A
C376        C554   1.465       .  S
O377        C390   1.262       .  A
O377       Cd384   2.020       .  S
O378        C396   1.290       .  A
O378       Cd387   2.161       .  S
O379        C393   1.280       .  A
O379       Cd383   2.058       .  S
O380        C391   1.275       .  A
O380       Cd383   2.122       .  S
Zn381       O392   1.953       .  S
Zn381       O394   1.939       .  S
Zn381       O386   1.828       .  S
O382        C393   1.288       .  A
O382       Cd387   2.120       .  S
Cd383       O385   2.070       .  S
Cd383       O386   1.963       .  S
Cd384       O388   1.992       .  S
Cd384       O397   1.993       .  S
Cd384       O386   1.934       .  S
O385        C395   1.280       .  A
O386       Cd387   1.983       .  S
Cd387       O389   2.117       .  S
O388        C395   1.267       .  A
C390        O394   1.263       .  A
C396        O397   1.269       .  A
C396        N398   1.434       .  S
N398        C402   1.371       .  A
N398        C399   1.377       .  A
C399        C400   1.379       .  A
C400        C401   1.355       .  A
C400        H403   1.083       .  S
C401        C402   1.382       .  A
C401        H404   1.083       .  S
C402        C469   1.484       .  S
N405        C409   1.366       .  A
N405        C406   1.373       .  A
N405        C492   1.438       .  S
C406        C407   1.382       .  A
C407        C408   1.360       .  A
C407        H410   1.081       .  S
C408        C409   1.377       .  A
C408        H411   1.083       .  S
C409        C430   1.475       .  S
O412        C428   1.264       .  A
O412       Zn418   1.922       .  S
C413        O429   1.269       .  A
C413        O426   1.269       .  A
O414        C427   1.265       .  A
O414       Cd421   2.100       .  S
O415        C433   1.275       .  A
O415       Cd424   2.071       .  S
O416        C430   1.276       .  A
O416       Cd420   2.071       .  S
O417        C428   1.273       .  A
O417       Cd420   2.087       .  S
Zn418       O429   1.974       .  S
Zn418       O431   1.960       .  S
Zn418       O423   1.842       .  S
O419        C430   1.283       .  A
O419       Cd424   2.081       .  S
Cd420       O422   2.037       .  S
Cd420       O423   1.972       .  S
Cd421       O425   2.086       .  S
Cd421       O434   2.048       .  S
Cd421       O423   1.978       .  S
O422        C432   1.274       .  A
O423       Cd424   1.944       .  S
Cd424       O426   2.016       .  S
O425        C432   1.282       .  A
C427        O431   1.259       .  A
C428        C546   1.446       .  S
C432        C439   1.466       .  S
C433        O434   1.285       .  A
N435        C439   1.343       .  A
N435        C436   1.357       .  A
N435        C470   1.420       .  S
C436        C437   1.385       .  A
C437        C438   1.374       .  A
C437        H440   1.083       .  S
C438        C439   1.378       .  A
C438        H441   1.079       .  S
N442        C446   1.361       .  A
N442        C443   1.371       .  A
N442        C467   1.434       .  S
C443        C444   1.384       .  A
C444        C445   1.356       .  A
C444        H447   1.083       .  S
C445        C446   1.375       .  A
C445        H448   1.077       .  S
C446        C490   1.471       .  S
O449        C465   1.266       .  A
O449       Zn455   1.983       .  S
C450        O466   1.265       .  A
C450        O463   1.271       .  A
O451        C464   1.271       .  A
O451       Cd458   2.055       .  S
O452        C470   1.284       .  A
O452       Cd461   2.079       .  S
O453        C467   1.282       .  A
O453       Cd457   2.034       .  S
O454        C465   1.268       .  A
O454       Cd457   2.063       .  S
Zn455       O466   1.946       .  S
Zn455       O468   1.977       .  S
Zn455       O460   1.840       .  S
O456        C467   1.282       .  A
O456       Cd461   2.110       .  S
Cd457       O459   2.093       .  S
Cd457       O460   1.971       .  S
Cd458       O462   2.073       .  S
Cd458       O471   2.046       .  S
Cd458       O460   1.946       .  S
O459        C469   1.276       .  A
O460       Cd461   1.980       .  S
Cd461       O463   2.100       .  S
O462        C469   1.280       .  A
C464        O468   1.273       .  A
C464        C607   1.451       .  S
C470        O471   1.274       .  A
O472        C488   1.266       .  A
O472       Zn478   1.958       .  S
C473        O489   1.260       .  A
C473        O486   1.269       .  A
O474        C487   1.267       .  A
O474       Cd481   2.072       .  S
O475        C493   1.273       .  A
O475       Cd484   2.077       .  S
O476        C490   1.280       .  A
O476       Cd480   2.104       .  S
O477        C488   1.272       .  A
O477       Cd480   2.102       .  S
Zn478       O489   1.910       .  S
Zn478       O491   1.949       .  S
Zn478       O483   1.855       .  S
O479        C490   1.275       .  A
O479       Cd484   2.049       .  S
Cd480       O482   2.114       .  S
Cd480       O483   2.037       .  S
Cd481       O485   2.059       .  S
Cd481       O494   2.089       .  S
Cd481       O483   1.981       .  S
O482        C492   1.282       .  A
O483       Cd484   2.025       .  S
Cd484       O486   2.103       .  S
O485        C492   1.280       .  A
C487        O491   1.268       .  A
C487        C599   1.450       .  S
C493        O494   1.282       .  A
N495        C499   1.355       .  A
N495        C496   1.375       .  A
N495        C550   1.440   1_545  S
C496        C497   1.382       .  A
C497        C498   1.363       .  A
C497        H500   1.083       .  S
C498        C499   1.378       .  A
C498        H501   1.083       .  S
C499        C624   1.464       .  S
N502        C506   1.360       .  A
N502        C503   1.365       .  A
N502        C571   1.433       .  S
C503        C504   1.378       .  A
C504        C505   1.362       .  A
C504        H507   1.083       .  S
C505        C506   1.385       .  A
C505        H508   1.082       .  S
C506        C603   1.479   1_545  S
N509        C513   1.357   1_655  A
N509        C510   1.364   1_655  A
N509        C574   1.429       .  S
C510        C511   1.382       .  A
C511        C512   1.376       .  A
C511        H514   1.083       .  S
C512        C513   1.379       .  A
C512        H515   1.078       .  S
C513        C627   1.479       .  S
N516        C520   1.366       .  A
N516        C517   1.380       .  A
N516        C551   1.461   1_545  S
C517        C518   1.377       .  A
C518        C519   1.353       .  A
C518        H521   1.083       .  S
C519        C520   1.385       .  A
C519        H522   1.083       .  S
C520        C573   1.481   1_455  S
N523        C527   1.369       .  A
N523        C524   1.373       .  A
N523        C601   1.442       .  S
C524        C525   1.378       .  A
C525        C526   1.359       .  A
C525        H528   1.083       .  S
C526        C527   1.389       .  A
C526        H529   1.083       .  S
C527        C548   1.500       .  S
O530        C546   1.266       .  A
O530       Zn536   1.950       .  S
C531        O547   1.264       .  A
C531        O544   1.275       .  A
O532        C545   1.277       .  A
O532       Cd539   2.141       .  S
O533        C551   1.290       .  A
O533       Cd542   2.151       .  S
O534        C548   1.280       .  A
O534       Cd538   2.055       .  S
O535        C546   1.268       .  A
O535       Cd538   2.078       .  S
Zn536       O547   1.951       .  S
Zn536       O549   1.953       .  S
Zn536       O541   1.840       .  S
O537        C548   1.291       .  A
O537       Cd542   2.167       .  S
Cd538       O540   2.051       .  S
Cd538       O541   1.972       .  S
Cd539       O543   2.165   1_565  S
Cd539       O552   2.130   1_565  S
Cd539       O541   1.974       .  S
O540        C550   1.273       .  A
O541       Cd542   2.017       .  S
Cd542       O544   2.105       .  S
O543        C550   1.295   1_545  A
C545        O549   1.263       .  A
C551        O552   1.293   1_565  A
O553        C569   1.268       .  A
O553       Zn559   1.963       .  S
C554        O570   1.270       .  A
C554        O567   1.272       .  A
O555        C568   1.269       .  A
O555       Cd562   2.066       .  S
O556        C574   1.277       .  A
O556       Cd565   2.088       .  S
O557        C571   1.281       .  A
O557       Cd561   2.106       .  S
O558        C569   1.275       .  A
O558       Cd561   2.127       .  S
Zn559       O570   1.985       .  S
Zn559       O572   1.959       .  S
Zn559       O564   1.872       .  S
O560        C571   1.279       .  A
O560       Cd565   2.040       .  S
Cd561       O563   2.120       .  S
Cd561       O564   2.043       .  S
Cd562       O566   2.041   1_655  S
Cd562       O575   2.057       .  S
Cd562       O564   1.980       .  S
O563        C573   1.283       .  A
O564       Cd565   1.983       .  S
Cd565       O567   2.091       .  S
O566        C573   1.277   1_455  A
C568        O572   1.267       .  A
C574        O575   1.271       .  A
N576        C580   1.347       .  A
N576        C577   1.352       .  A
N576        C604   1.425       .  S
C577        C578   1.385       .  A
C578        C579   1.373       .  A
C578        H581   1.082       .  S
C579        C580   1.380       .  A
C579        H582   1.082       .  S
C580        C626   1.472       .  S
O583        C599   1.254       .  A
O583       Zn589   1.935       .  S
C584        O600   1.266       .  A
C584        O597   1.279       .  A
O585        C598   1.272       .  A
O585       Cd592   2.044       .  S
O586        C604   1.286       .  A
O586       Cd595   2.088   1_455  S
O587        C601   1.287   1_655  A
O587       Cd591   2.121       .  S
O588        C599   1.270       .  A
O588       Cd591   2.112       .  S
Zn589       O600   1.958       .  S
Zn589       O602   1.987       .  S
Zn589       O594   1.830       .  S
O590        C601   1.288       .  A
O590       Cd595   2.083   1_455  S
Cd591       O593   2.136       .  S
Cd591       O594   2.034       .  S
Cd592       O596   2.040       .  S
Cd592       O605   2.030       .  S
Cd592       O594   1.948       .  S
O593        C603   1.282       .  A
O594       Cd595   1.959       .  S
Cd595       O597   2.161       .  S
O596        C603   1.269       .  A
C598        O602   1.275       .  A
C604        O605   1.268   1_455  A
O606        C622   1.260       .  A
O606       Zn612   1.961       .  S
C607        O623   1.270       .  A
C607        O620   1.279       .  A
O608        C621   1.271       .  A
O608       Cd615   2.131       .  S
O609        C627   1.272       .  A
O609       Cd618   2.063       .  S
O610        C624   1.278       .  A
O610       Cd614   2.071       .  S
O611        C622   1.270       .  A
O611       Cd614   2.111       .  S
Zn612       O623   1.958       .  S
Zn612       O625   1.898       .  S
Zn612       O617   1.823       .  S
O613        C624   1.272       .  A
O613       Cd618   2.052       .  S
Cd614       O616   2.048   1_545  S
Cd614       O617   1.985       .  S
Cd615       O619   2.112       .  S
Cd615       O628   2.094       .  S
Cd615       O617   2.011       .  S
O616        C626   1.279       .  A
O617       Cd618   1.973       .  S
Cd618       O620   2.079       .  S
O619        C626   1.290   1_545  A
C621        O625   1.262       .  A
C627        O628   1.282       .  A
